11
3-isocyanato-bromopropene[B3LYP/aug-cc-pVTZ]
Br    -2.267871   -0.291954   -0.040277
O     3.663540   -1.567304    0.108174
N     2.809816    0.618208   -0.205898
C     1.638478    1.423302    0.082027
C     0.360464    0.765580   -0.357880
C    -0.627875    0.510467    0.482479
C     3.186038   -0.505612   -0.014415
H     1.767571    2.367862   -0.447493
H     1.606371    1.652917    1.148662
H     0.279107    0.508641   -1.406687
H    -0.597210    0.737527    1.537844
