16
EZ-3-methyl-1-3-pentadiene[B3LYP/aug-cc-pVTZ]
C     2.526085   -0.224091   -0.000065
C     1.294342   -0.739554    0.000012
C     0.034400    0.006499   -0.000010
C    -1.115939   -0.688795    0.000099
C    -2.521058   -0.179706    0.000118
C     0.114883    1.508528   -0.000144
H     3.396043   -0.865751   -0.000039
H     2.711374    0.841312   -0.000153
H     1.189188   -1.820097    0.000100
H    -1.028922   -1.771727    0.000189
H    -3.063558   -0.549262    0.875060
H    -2.589482    0.905588   -0.000006
H    -3.063659   -0.549470   -0.874672
H     0.658431    1.866471   -0.877450
H    -0.864162    1.979015   -0.000164
H     0.658474    1.866628    0.877071
