14
C4H5NO3S[B3LYP/aug-cc-pVTZ]
S    -0.536792   -0.543833   -0.276416
O     0.866478    1.705968    0.049598
O     2.489216   -1.419387    0.583107
O     2.845768    0.218453   -0.891343
N    -4.192497   -0.407208   -0.402880
C     0.859914    0.349946    0.489306
C     2.146941   -0.391213    0.076767
C    -1.899041    0.431745    0.492309
C    -3.177957   -0.037706   -0.008686
H     1.217959    2.266909    0.750986
H     2.393223    1.045651   -1.126008
H     0.773010    0.288303    1.574137
H    -1.868393    0.311523    1.575605
H    -1.770497    1.482491    0.239021
