10
acetamidine[B3LYP/aug-cc-pVTZ]
C    -0.078977    0.122141    0.000466
C     1.411558   -0.089220    0.001120
N    -0.551941    1.306983    0.008721
N    -0.819020   -1.045938   -0.060148
H     1.910931    0.874016    0.006173
H     1.722528   -0.656817    0.881242
H     1.720667   -0.651513   -0.881909
H    -1.571784    1.312848    0.003132
H    -1.803738   -0.993258    0.139354
H    -0.377366   -1.910114    0.202483
