22
acenaphthene[B3LYP/aug-cc-pVTZ]
C     0.000000    2.417403    1.181934
C     0.000000   -2.417403    1.181934
C     0.000000    1.271044    1.944423
C     0.000000   -1.271044    1.944423
C     0.000000    2.386884   -0.235954
C     0.000000   -2.386884   -0.235954
C     0.000000    0.000000    1.317592
C     0.000000    0.000000   -0.091156
C     0.000000    1.171139   -0.870305
C     0.000000   -1.171139   -0.870305
C     0.000000    0.782271   -2.334961
C     0.000000   -0.782271   -2.334961
H     0.000000    3.379258    1.678463
H     0.000000   -3.379258    1.678463
H     0.000000    1.338083    3.024941
H     0.000000   -1.338083    3.024941
H     0.000000    3.317350   -0.789309
H     0.000000   -3.317350   -0.789309
H    -0.874591    1.180702   -2.852112
H     0.874591    1.180702   -2.852112
H     0.874591   -1.180702   -2.852112
H    -0.874591   -1.180702   -2.852112
