13
aceticanhydride[B3LYP/aug-cc-pVTZ]
C     0.000000    2.369460    0.740351
C    -0.343853    1.165080   -0.083876
O    -0.878029    1.154247   -1.148636
H    -0.405130    3.260516    0.271345
H    -0.391201    2.260041    1.751197
H     1.085006    2.452696    0.818365
O     0.000000    0.000000    0.602333
C     0.343853   -1.165080   -0.083876
C     0.000000   -2.369460    0.740351
O     0.878029   -1.154247   -1.148636
H     0.391201   -2.260041    1.751197
H     0.405130   -3.260516    0.271345
H    -1.085006   -2.452696    0.818365
