9
acetaldoxime[B3LYP/aug-cc-pVTZ]
C    -1.285321    1.316376    0.000000
C     0.000000    0.560718    0.000000
N    -0.003088   -0.706431    0.000000
O     1.307613   -1.225774    0.000000
H     1.160285   -2.176767    0.000000
H    -2.132483    0.633899    0.000000
H    -1.349609    1.963012    0.878124
H    -1.349609    1.963012   -0.878124
H     0.944054    1.105492    0.000000
