8
aceticacid[B3LYP/aug-cc-pVTZ]
C     0.000000    0.155267    0.000000
C     1.069204   -0.899341    0.000000
O     0.178356    1.345599    0.000000
O    -1.241854   -0.392584    0.000000
H     0.960614   -1.536194    0.877879
H     0.960614   -1.536194   -0.877879
H     2.046305   -0.427881    0.000000
H    -1.874777    0.340590    0.000000
