20
acenaphthylene[B3LYP/aug-cc-pVTZ]
C     0.000000    0.000000   -0.139949
C     0.000000    0.000000    1.250982
C     0.000000    1.278325    1.873143
C     0.000000   -1.278325    1.873143
C     0.000000    1.157671   -0.947530
C     0.000000   -1.157671   -0.947530
C     0.000000    2.419948    1.100100
C     0.000000   -2.419948    1.100100
C     0.000000    2.381426   -0.319988
C     0.000000   -2.381426   -0.319988
C     0.000000    0.679125   -2.336932
C     0.000000   -0.679125   -2.336932
H     0.000000    3.385258    1.589050
H     0.000000   -3.385258    1.589050
H     0.000000    1.356296    2.952947
H     0.000000   -1.356296    2.952947
H     0.000000    3.310213   -0.876427
H     0.000000   -3.310213   -0.876427
H     0.000000    1.311632   -3.211425
H     0.000000   -1.311632   -3.211425
