13
4-5-1-3-dithiolane-1-3-diazine[B3LYP/aug-cc-pVTZ]
C    -1.485209    1.351731    0.043199
C    -2.539465   -0.658118    0.027515
C    -0.256809    0.716701   -0.007150
C    -0.286056   -0.686804   -0.018776
C     2.255116   -0.024473    0.324269
N    -2.633772    0.663232    0.061234
N    -1.410366   -1.376466   -0.006097
S     1.321935    1.487762   -0.135275
S     1.275421   -1.509989   -0.105022
H    -1.560648    2.432329    0.064669
H    -3.465024   -1.219915    0.032889
H     3.180774   -0.038600   -0.242667
H     2.470711   -0.019781    1.389566
