10
acrylamide[B3LYP/aug-cc-pVTZ]
C    -0.802490   -0.641917   -0.000049
C     0.476208    0.129519   -0.000019
N     1.603597   -0.640957   -0.000091
O     0.524695    1.347317   -0.000004
C    -1.976832   -0.024715    0.000041
H    -0.744777   -1.724573   -0.000141
H     2.497946   -0.182204    0.000312
H     1.570738   -1.643448    0.000506
H    -2.020997    1.056447    0.000120
H    -2.906961   -0.575387    0.000032
