17
acetophenone[B3LYP/aug-cc-pVTZ]
C     0.597274   -2.517032    0.000000
C    -0.727051   -2.095954    0.000000
C     1.625447   -1.577546    0.000000
C    -1.024386   -0.738517    0.000000
C     1.328876   -0.224101    0.000000
C     0.000000    0.211798    0.000000
C    -0.267977    1.685966    0.000000
C    -1.703331    2.168928    0.000000
O     0.649584    2.482840    0.000000
H     0.828858   -3.573768    0.000000
H    -1.527758   -2.822994    0.000000
H     2.656502   -1.904437    0.000000
H    -2.058803   -0.426120    0.000000
H     2.113187    0.519223    0.000000
H    -2.237541    1.804546    0.879154
H    -2.237541    1.804546   -0.879154
H    -1.706692    3.255037    0.000000
