7
CH3COF[B3LYP/aug-cc-pVTZ]
C     0.000000    0.188237    0.000000
C     1.066414   -0.856833    0.000000
O     0.099012    1.365638    0.000000
F    -1.237794   -0.393573    0.000000
H     2.044346   -0.386604    0.000000
H     0.952608   -1.492386    0.878134
H     0.952608   -1.492386   -0.878134
