9
aminoethyl-thiocyanate[B3LYP/aug-cc-pVTZ]
S    -0.154598    0.797920   -0.000126
N    -2.619333   -0.626920    0.000187
N     2.422422   -0.270399    0.000050
C    -1.619108   -0.044584    0.000062
C     1.077109   -0.690019   -0.000032
H     2.715554    0.220385    0.831850
H     2.715654    0.220307   -0.831658
H     0.836423   -1.259219   -0.891167
H     0.836311   -1.259342    0.891152
