14
aniline[B3LYP/aug-cc-pVTZ]
C    -0.003357   -1.874982    0.000000
C    -0.003231   -1.167816    1.197776
C    -0.003231   -1.167816   -1.197776
C    -0.003231    0.219824    1.202965
C    -0.003231    0.219824   -1.202965
C    -0.002373    0.934694    0.000000
N    -0.059398    2.328540    0.000000
H    -0.002994   -2.955765    0.000000
H    -0.002518   -1.699840    2.140057
H    -0.002518   -1.699840   -2.140057
H    -0.008370    0.757854    2.143040
H    -0.008370    0.757854   -2.143040
H     0.276236    2.778796   -0.835682
H     0.276236    2.778796    0.835682
