26
arginine[B3LYP/aug-cc-pVTZ]
N    -2.526983    1.644610    0.539401
C    -2.309574    0.430804   -0.263716
C    -3.543059   -0.493877   -0.155950
O    -3.559770   -1.614822   -0.589237
O    -4.602147    0.075386    0.430775
H    -4.303472    0.974710    0.689949
C    -1.025447   -0.342914    0.052142
C     0.250781    0.404006   -0.330854
C     1.510265   -0.390892    0.003386
N     2.702104    0.351444   -0.372440
C     3.997767    0.022671   -0.008400
N     4.099684   -0.984055    0.943541
N     5.063631    0.606486   -0.414314
H    -2.286412    0.732459   -1.314703
H    -1.014272   -0.576246    1.122559
H    -1.076507   -1.298385   -0.469583
H     0.232932    0.616099   -1.405631
H     0.304202    1.368500    0.179891
H     1.544459   -0.575336    1.078269
H     1.458323   -1.369138   -0.495193
H     2.638588    0.883680   -1.223524
H     3.488801   -1.778017    0.839937
H     5.061405   -1.240273    1.103040
H     4.860793    1.403058   -1.010069
H    -2.070153    1.586068    1.441314
H    -2.196817    2.480125    0.078473
