24
anthracene[B3LYP/aug-cc-pVTZ]
C     0.000000    0.719869    1.218890
C     0.000000   -0.719869    1.218890
C     0.000000    1.398321    0.000000
C     0.000000    1.401530    2.470807
C     0.000000   -1.398321    0.000000
C     0.000000   -1.401530    2.470807
C     0.000000    0.719869   -1.218890
C     0.000000    0.710698    3.646151
C     0.000000   -0.719869   -1.218890
C     0.000000   -0.710698    3.646151
C     0.000000    1.401530   -2.470807
C     0.000000   -1.401530   -2.470807
C     0.000000    0.710698   -3.646151
C     0.000000   -0.710698   -3.646151
H     0.000000    2.481982    0.000000
H     0.000000    2.484308    2.470066
H     0.000000   -2.481982    0.000000
H     0.000000   -2.484308    2.470066
H     0.000000    1.241764    4.588686
H     0.000000   -1.241764    4.588686
H     0.000000    2.484308   -2.470066
H     0.000000   -2.484308   -2.470066
H     0.000000    1.241764   -4.588686
H     0.000000   -1.241764   -4.588686
