14
benzaldehyde[B3LYP/aug-cc-pVTZ]
C     0.571069   -2.149970    0.000000
C     1.611083   -1.227341    0.000000
C    -0.754728   -1.717051    0.000000
C     1.324206    0.131604    0.000000
C    -1.041517   -0.362317    0.000000
C     0.000000    0.570512    0.000000
C    -0.284070    2.020789    0.000000
O    -1.388905    2.512174    0.000000
H     0.790975   -3.209245    0.000000
H     2.637810   -1.566777    0.000000
H    -1.558218   -2.441065    0.000000
H     2.126678    0.859329    0.000000
H    -2.060939   -0.001955    0.000000
H     0.618676    2.664963    0.000000
