11
azetidine[B3LYP/aug-cc-pVTZ]
C     0.082897    1.078427    0.000000
C     0.082897   -0.051210    1.054630
C     0.082897   -0.051210   -1.054630
N    -0.374490   -0.989590    0.000000
H    -0.845440    1.645623    0.000000
H     0.926741    1.763706    0.000000
H     1.090133   -0.261322    1.431487
H    -0.597396    0.043257    1.901760
H    -0.597396    0.043257   -1.901760
H     1.090133   -0.261322   -1.431487
H     0.062512   -1.902110    0.000000
