21
benzo1-2-b-3-4-b'-5-6-btrifuran[B3LYP/aug-cc-pVTZ]
C    -2.229408    1.746979    0.000000
C     2.627632    1.057235    0.000000
C    -0.398224   -2.804213    0.000000
C    -1.554337    2.916926    0.000000
C     3.303300   -0.112368    0.000000
C    -1.748963   -2.804558    0.000000
C    -1.230229    0.713698    0.000000
C     1.233195    0.708561    0.000000
C    -0.002966   -1.422258    0.000000
C     0.000000    1.375748    0.000000
C     1.191433   -0.687874    0.000000
C    -1.191433   -0.687874    0.000000
O    -0.195326    2.723963    0.000000
O     2.456685   -1.192825    0.000000
O    -2.261359   -1.531139    0.000000
H    -3.298343    1.627719    0.000000
H     3.058818    2.042589    0.000000
H     0.239525   -3.670309    0.000000
H    -1.873962    3.943054    0.000000
H     4.351766   -0.348628    0.000000
H    -2.477803   -3.594426    0.000000
