24
1-2-b-3-4-b-5-6-b-tripyrrole-benzene[B3LYP/aug-cc-pVTZ]
C    -2.260008    1.718793    0.000000
C     2.618522    1.097828    0.000000
C    -0.358514   -2.816621    0.000000
C    -1.636395    2.936436    0.000000
C     3.361226   -0.051059    0.000000
C    -1.724831   -2.885378    0.000000
C    -1.235698    0.719678    0.000000
C     1.241108    0.710307    0.000000
C    -0.005410   -1.429985    0.000000
C     0.000000    1.392828    0.000000
C     1.206225   -0.696414    0.000000
C    -1.206225   -0.696414    0.000000
N    -0.273028    2.739129    0.000000
N     2.508669   -1.133115    0.000000
N    -2.235641   -1.606014    0.000000
H    -3.326106    1.566758    0.000000
H     3.019905    2.097113    0.000000
H     0.306200   -3.663871    0.000000
H    -2.050289    3.929412    0.000000
H     4.428115   -0.189104    0.000000
H    -2.377826   -3.740308    0.000000
H     0.415105    3.468383    0.000000
H     2.796155   -2.093683    0.000000
H    -3.211260   -1.374700    0.000000
