14
benzocyclobutadiene[B3LYP/aug-cc-pVTZ]
C     0.000000    1.439760   -0.621675
C     0.000000    0.686345   -1.839508
C     0.000000   -0.686345   -1.839508
C     0.000000   -1.439760   -0.621675
C     0.000000   -0.673165    2.041672
C     0.000000    0.673165    2.041672
C     0.000000    0.709390    0.520531
C     0.000000   -0.709390    0.520531
H     0.000000    2.521064   -0.642939
H     0.000000    1.216563   -2.782280
H     0.000000   -1.216563   -2.782280
H     0.000000   -2.521064   -0.642939
H     0.000000   -1.421348    2.819103
H     0.000000    1.421348    2.819103
