12
benzene[B3LYP/aug-cc-pVTZ]
C     0.000000    1.390589    0.000000
C     1.204285    0.695294    0.000000
C    -1.204285    0.695294    0.000000
C     1.204285   -0.695294    0.000000
C    -1.204285   -0.695294    0.000000
C     0.000000   -1.390589    0.000000
H     0.000000    2.472617    0.000000
H     0.000000   -2.472617    0.000000
H    -2.141349    1.236308    0.000000
H     2.141349   -1.236308    0.000000
H     2.141349    1.236308    0.000000
H    -2.141349   -1.236308    0.000000
