9
beta-propiolactone[B3LYP/aug-cc-pVTZ]
O    -1.034291   -0.277068    0.000000
C     0.000000    0.628638    0.000000
O    -0.070941    1.813015    0.000000
C     1.084794   -0.444247    0.000000
H     1.709429   -0.440463    0.889880
H     1.709429   -0.440463   -0.889880
C    -0.101764   -1.414106    0.000000
H    -0.237589   -2.014177   -0.895897
H    -0.237589   -2.014177    0.895897
