10
bicyclo-1-1-0-butane[B3LYP/aug-cc-pVTZ]
C    -0.742813    0.000000   -0.317669
C     0.742813    0.000000   -0.317669
C     0.000000    1.134528    0.312889
C     0.000000   -1.134528    0.312889
H     0.000000   -1.232016    1.397188
H     0.000000    1.232016    1.397188
H     0.000000   -2.078551   -0.219647
H     0.000000    2.078551   -0.219647
H    -1.425483    0.000000   -1.148859
H     1.425483    0.000000   -1.148859
