12
benzoquinone[B3LYP/aug-cc-pVTZ]
C     0.000000    0.000000    1.438198
C     0.000000    0.000000   -1.438198
O     0.000000    0.000000    2.656988
O     0.000000    0.000000   -2.656988
C     0.000000    1.265716    0.667837
C     0.000000   -1.265716    0.667837
C     0.000000   -1.265716   -0.667837
C     0.000000    1.265716   -0.667837
H     0.000000    2.176019    1.252736
H     0.000000   -2.176019    1.252736
H     0.000000   -2.176019   -1.252736
H     0.000000    2.176019   -1.252736
