13
beta-alanine[B3LYP/aug-cc-pVTZ]
H     2.844792   -0.788170    0.777220
H     3.404575    0.345604   -0.245141
N     2.637944   -0.294370   -0.082906
H     1.280732    1.064160    0.901267
H     1.287489    1.091764   -0.849294
C     1.367895    0.430365    0.012626
H     0.282574   -1.185743   -0.904827
H     0.265487   -1.235933    0.844398
C     0.206748   -0.556935   -0.013182
O    -1.337293    1.297083    0.023560
C    -1.152003    0.113743    0.002622
H    -1.923395   -1.652577   -0.039753
O    -2.218170   -0.734777   -0.013051
