10
benzyne[B3LYP/aug-cc-pVTZ]
C     0.000000    1.455634   -0.133697
C     0.000000    0.700529    1.053581
C     0.000000   -0.700529    1.053581
C     0.000000   -1.455634   -0.133697
C     0.000000   -0.620534   -1.230930
C     0.000000    0.620534   -1.230930
H     0.000000    2.535415   -0.135167
H     0.000000    1.224463    2.001444
H     0.000000   -1.224463    2.001444
H     0.000000   -2.535415   -0.135167
