13
bicyclo-2-1-0-pentane[B3LYP/aug-cc-pVTZ]
C    -0.244446   -0.536702    0.764733
C    -0.244446   -0.536702   -0.764733
C    -0.244446    0.993902    0.781471
C    -0.244446    0.993902   -0.781471
C     0.939024   -1.048468    0.000000
H    -0.797183   -1.171910    1.441963
H    -0.797183   -1.171910   -1.441963
H     0.607058    1.464190    1.277074
H     0.607058    1.464190   -1.277074
H    -1.160667    1.417563    1.188390
H    -1.160667    1.417563   -1.188390
H     1.871038   -0.492128    0.000000
H     1.063120   -2.123147    0.000000
