14
bicyclo-2-1-1-hex-2-ene[B3LYP/aug-cc-pVTZ]
C     0.000000    0.666639    1.212835
C     0.000000   -0.666639    1.212835
C     0.000000   -1.020958   -0.278406
C     0.000000    1.020958   -0.278406
C     1.063233    0.000000   -0.808697
C    -1.063233    0.000000   -0.808697
H     0.000000    1.359953    2.038801
H     0.000000   -1.359953    2.038801
H     0.000000   -2.068141   -0.567858
H     0.000000    2.068141   -0.567858
H     2.041135    0.000000   -0.329854
H    -2.041135    0.000000   -0.329854
H    -1.157060    0.000000   -1.895481
H     1.157060    0.000000   -1.895481
