22
bicyclo-5-1-0-octane[B3LYP/aug-cc-pVTZ]
C     0.322882   -1.211271    0.752902
C     0.322882   -1.211271   -0.752902
C    -0.466950   -2.251492    0.000000
C    -0.345255   -0.092908    1.527147
C    -0.345255   -0.092908   -1.527147
C     0.322882    1.274175    1.311568
C     0.322882    1.274175   -1.311568
C    -0.056876    1.976267    0.000000
H     1.240243   -1.564633   -1.210344
H    -0.116933   -3.274616    0.000000
H    -1.545089   -2.152272    0.000000
H    -1.402559   -0.021790    1.258165
H    -0.326225   -0.345142    2.590759
H    -0.326225   -0.345142   -2.590759
H    -1.402559   -0.021790   -1.258165
H     0.048720    1.937680    2.136366
H     1.410002    1.155998    1.365948
H     1.410002    1.155998   -1.365948
H     0.048720    1.937680   -2.136366
H    -1.139984    2.143490    0.000000
H     0.398488    2.970578    0.000000
H     1.240243   -1.564633    1.210344
