25
bicyclo-3-3-1-nonane[B3LYP/aug-cc-pVTZ]
C    -1.220553    0.008291    0.000000
C     0.018065    0.941134    0.000000
C     0.207716    1.430365    1.426632
C     0.207716    1.430365   -1.426632
C    -0.475923   -1.306583    0.000000
C     0.207716    0.053150    2.219513
C     0.207716    0.053150   -2.219513
C     0.362254   -1.260477   -1.348939
C     0.362254   -1.260477    1.348939
H    -1.853935    0.149273    0.874293
H    -1.853935    0.149273   -0.874293
H     0.882835    0.286335    0.000000
H     1.158855    1.951425    1.555610
H    -0.583800    2.082415    1.802671
H    -0.583800    2.082415   -1.802671
H     1.158855    1.951425   -1.555610
H    -1.113964   -2.193709    0.000000
H     1.006641    0.053850    2.962556
H    -0.719568   -0.025384    2.786768
H    -0.719568   -0.025384   -2.786768
H     1.006641    0.053850   -2.962556
H     1.419007   -1.432023   -1.131265
H     0.057484   -2.092626   -1.986451
H     0.057484   -2.092626    1.986451
H     1.419007   -1.432023    1.131265
