22
bicyclo-2-2-2-octane[B3LYP/aug-cc-pVTZ]
C     0.000000    0.000000    1.295208
C    -0.017844    1.447195    0.777177
C    -1.244385   -0.739051    0.777177
C     0.017844    1.447195   -0.777177
C     0.000000    0.000000   -1.295208
C    -1.262230   -0.708144   -0.777177
C     1.262230   -0.708144    0.777177
C     1.244385   -0.739051   -0.777177
H     1.308838   -1.720784    1.182692
H     0.000000    0.000000   -2.387174
H    -2.149499   -0.186632   -1.142178
H     2.149499   -0.186632    1.142178
H    -1.308838   -1.720784   -1.182692
H     0.000000    0.000000    2.387174
H    -2.144662   -0.273094    1.182692
H     1.236378   -1.768205   -1.142178
H     0.835824    1.993879    1.182692
H    -0.835824    1.993879   -1.182692
H     2.144662   -0.273094   -1.182692
H    -0.913121    1.954837    1.142178
H    -1.236378   -1.768205    1.142178
H     0.913121    1.954837   -1.142178
