16
bicyclo-3-1-0-hexane[B3LYP/aug-cc-pVTZ]
H    -1.102142   -2.369592    0.000000
H    -1.825210   -0.706722    0.000000
C    -0.167576    1.451617    0.000000
H    -1.252508    1.558566    0.000000
H     0.244759    2.460062    0.000000
C     0.285460    0.631379    1.227651
H    -0.356020    0.801607    2.094810
H     1.301459    0.910417    1.518369
C     0.285460    0.631379   -1.227651
H     1.301459    0.910417   -1.518369
H    -0.356020    0.801607   -2.094810
C    -0.922260   -1.303615    0.000000
C     0.285460   -0.812956    0.755445
H     0.866098   -1.537728    1.309572
C     0.285460   -0.812956   -0.755445
H     0.866098   -1.537728   -1.309572
