22
biphenyl[B3LYP/aug-cc-pVTZ]
C     0.000000    0.000000   -0.741117
C    -0.402579    1.130241   -1.461501
C     0.402579   -1.130241   -1.461501
C     0.403188   -1.130626   -2.850176
C     0.000000    0.000000   -3.551569
C    -0.403188    1.130626   -2.850176
C     0.000000    0.000000    0.741117
C     0.402579    1.130241    1.461501
C     0.403188    1.130626    2.850176
C     0.000000    0.000000    3.551569
C    -0.403188   -1.130626    2.850176
C    -0.402579   -1.130241    1.461501
H    -0.727357   -2.013375    3.385168
H    -0.727357    2.013375   -3.385168
H     0.000000    0.000000    4.633120
H     0.000000    0.000000   -4.633120
H     0.727357   -2.013375   -3.385168
H     0.727357    2.013375    3.385168
H     0.740949    2.008623    0.928761
H     0.740949   -2.008623   -0.928761
H    -0.740949   -2.008623    0.928761
H    -0.740949    2.008623   -0.928761
