10
bromo-cyanoacetamide[B3LYP/aug-cc-pVTZ]
Br    -1.448897   -0.263707    0.144519
O     1.569901   -1.766738   -0.721307
N     2.035093   -0.351963    0.993793
N     0.811028    2.739524   -0.095712
C     0.299927    0.250807   -0.637089
C     1.379146   -0.731690   -0.124040
C     0.556447    1.646747   -0.350631
H     0.192365    0.085858   -1.703739
H     1.888477    0.539733    1.433247
H     2.735356   -0.970058    1.366768
