14
butane[B3LYP/aug-cc-pVTZ]
C    -0.252798    0.723681    0.616235
C     0.252798    1.571360   -0.551646
C     0.252798   -0.723681    0.616235
C    -0.252798   -1.571360   -0.551646
H    -0.104388    2.599202   -0.473491
H     0.083428   -1.182319   -1.513402
H    -1.344623   -1.601548   -0.570383
H    -0.083428    1.182319   -1.513402
H     0.104388   -2.599202   -0.473491
H     1.344623    1.601548   -0.570383
H    -1.347442    0.719895    0.615666
H     0.047102    1.198634    1.554079
H     1.347442   -0.719895    0.615666
H    -0.047102   -1.198634    1.554079
