8
butatriene[B3LYP/aug-cc-pVTZ]
C     0.000000    0.000000    0.631617
C     0.000000    0.000000   -0.631617
C     0.000000    0.000000    1.943149
C     0.000000    0.000000   -1.943149
H     0.000000    0.924533    2.508102
H     0.000000   -0.924533    2.508102
H     0.000000    0.924533   -2.508102
H     0.000000   -0.924533   -2.508102
