13
butanal[B3LYP/aug-cc-pVTZ]
C    -1.498796    0.606364    0.000000
C     2.286416   -0.364870    0.000000
C     0.000000    0.740162    0.000000
C     0.773358   -0.572830    0.000000
O    -2.103883   -0.435720    0.000000
H    -2.049279    1.570818    0.000000
H     2.612258    0.192076    0.881024
H     2.813086   -1.319587    0.000000
H     2.612258    0.192076   -0.881024
H     0.262254    1.359651    0.867455
H     0.262254    1.359651   -0.867455
H     0.476183   -1.160935    0.870082
H     0.476183   -1.160935   -0.870082
