8
buta-1-3-diene-1-4-dione[B3LYP/aug-cc-pVTZ]
O    -0.115324    2.385771   -0.820827
O     0.115324   -2.385771   -0.820827
C     0.379356    0.637546    0.860073
C    -0.379356   -0.637546    0.860073
C     0.115324    1.569774   -0.030466
C    -0.115324   -1.569774   -0.030466
H     1.150733    0.853280    1.588973
H    -1.150733   -0.853280    1.588973
