13
buta-1-3-diynyl-fluoromethylcarbonate[B3LYP/aug-cc-pVTZ]
F     3.940309   -0.700508    0.000001
O     0.078593   -0.377057    0.000001
O     2.113751    0.544697    0.000000
O     0.337726    1.902359   -0.000003
C     0.818126    0.821984    0.000000
C    -1.226279   -0.291508    0.000001
C     2.589453   -0.807507    0.000001
C    -2.427483   -0.308785    0.000000
C    -3.790073   -0.312892    0.000000
C    -4.994397   -0.317938    0.000000
H     2.268129   -1.318104    0.905799
H     2.268129   -1.318107   -0.905795
H    -6.055687   -0.319329    0.000000
