14
butyricacid[B3LYP/aug-cc-pVTZ]
C    -1.045329   -0.494601    0.000000
C     2.460708    1.198934    0.000000
C     0.000000    0.591852    0.000000
C     1.432695    0.069636    0.000000
O    -0.842076   -1.681341    0.000000
O    -2.300401    0.024009    0.000000
H     2.354021    1.835295    0.881002
H     2.354021    1.835295   -0.881002
H     3.476451    0.802896    0.000000
H    -0.189161    1.228211    0.869185
H    -0.189161    1.228211   -0.869185
H     1.580358   -0.571042   -0.870771
H     1.580358   -0.571042    0.870771
H    -2.915516   -0.724098    0.000000
