7
chloroacetaldehyde[B3LYP/aug-cc-pVTZ]
C     0.028542    0.674903    0.133473
C     1.166085   -0.321837    0.199900
Cl    -1.550178   -0.167557   -0.077281
O     2.264073   -0.071400   -0.217240
H    -0.023974    1.228514    1.070602
H     0.172885    1.363727   -0.692610
H     0.923765   -1.290966    0.673464
