10
2-chloro-2-chloromethyl-propanedinitrile[B3LYP/aug-cc-pVTZ]
Cl     0.454804   -1.139246    1.304813
Cl    -2.281823   -0.133493   -0.404658
N     0.212304    2.469029    0.884988
N     2.741580   -0.189878   -1.346088
C     0.469741    0.052344   -0.074733
C    -0.644368   -0.282574   -1.092678
C     0.324537    1.401661    0.476873
C     1.759694   -0.075092   -0.761062
H    -0.569014    0.407136   -1.929326
H    -0.506489   -1.302670   -1.436011
