10
chloroaminoaceticacid[B3LYP/aug-cc-pVTZ]
Cl     2.428631   -0.064395    0.032886
O    -1.730300    1.196583    0.115542
O    -2.527186   -0.891563   -0.130112
N     0.770338    0.388259   -0.379853
C    -0.158958   -0.592845    0.181441
C    -1.598551   -0.146064    0.017450
H    -0.003971   -0.777676    1.252540
H    -0.042747   -1.538938   -0.340394
H     0.644604    1.280659    0.086477
H    -2.672033    1.406156    0.024511
