8
CH3CH2Cl[B3LYP/aug-cc-pVTZ]
C     1.506018    0.680611    0.000000
C     0.000000    0.820714    0.000000
H     1.961216    1.673866    0.000000
H     1.851632    0.145961    0.883624
H     1.851632    0.145961   -0.883624
Cl    -0.821829   -0.802430    0.000000
H    -0.364745    1.333788    0.885068
H    -0.364745    1.333788   -0.885068
