18
cinnamaldehyde[B3LYP/aug-cc-pVTZ]
C    -1.730590   -2.882390    0.000000
O    -1.562058   -4.083390    0.000000
C    -0.655985   -1.894403    0.000000
C    -0.933573   -0.580286    0.000000
C     0.000000    0.539524    0.000000
C    -0.511516    1.844139    0.000000
C     0.333448    2.945067    0.000000
C     1.710603    2.761404    0.000000
C     2.236083    1.470696    0.000000
C     1.393141    0.372360    0.000000
H    -2.755406   -2.457004    0.000000
H     0.353546   -2.285206    0.000000
H    -1.983825   -0.299778    0.000000
H    -1.584212    1.989985    0.000000
H    -0.081742    3.943603    0.000000
H     2.373203    3.616136    0.000000
H     3.307662    1.324322    0.000000
H     1.817575   -0.621621    0.000000
