18
cis-1-2-dimethylcyclobutane[B3LYP/aug-cc-pVTZ]
C     0.636065    0.415283    0.571630
C    -0.713037   -0.368475    0.430685
C     1.364965   -0.856683    0.052791
C     0.013200   -1.382989   -0.489869
C     0.802735    1.630562   -0.331113
C    -1.968744    0.323549   -0.068200
H     0.880376    0.697694    1.597241
H    -0.928293   -0.850203    1.387512
H     2.167047   -0.700311   -0.668994
H    -0.125626   -1.141655   -1.544800
H     1.747856   -1.473016    0.866030
H    -0.212001   -2.439705   -0.348512
H     0.603423    1.391862   -1.377604
H    -1.805638    0.816530   -1.027783
H     0.132470    2.442392   -0.042514
H     1.825302    2.008700   -0.271645
H    -2.318826    1.078652    0.639323
H    -2.777199   -0.398427   -0.203797
