10
2-cyanoacetylisocyanate[B3LYP/aug-cc-pVTZ]
O    -0.110702    1.322911   -0.000131
O     3.466618    0.112051   -0.000002
N     1.198390   -0.579867    0.000060
N    -3.543633    0.280825   -0.000038
C    -1.194850   -0.840419    0.000081
C    -0.022543    0.130129   -0.000013
C    -2.498057   -0.193546    0.000012
C     2.344250   -0.163499    0.000022
H    -1.101710   -1.491289   -0.872483
H    -1.101714   -1.491113    0.872777
