14
cyclobutylamine[B3LYP/aug-cc-pVTZ]
N    -1.392026    0.964971    0.000000
H    -1.686104    1.489839    0.815536
H    -1.686104    1.489839   -0.815536
C     0.483446   -0.254439   -1.082525
H    -0.198668   -0.373542   -1.923807
H     1.483527   -0.047564   -1.463346
C     0.483446   -0.254439    1.082525
H    -0.198668   -0.373542    1.923807
H     1.483527   -0.047564    1.463346
C     0.057064    0.770920    0.000000
H     0.619951    1.711232    0.000000
C     0.483446   -1.364057    0.000000
H     1.324266   -2.055871    0.000000
H    -0.441946   -1.935530    0.000000
