12
cyclobutane[B3LYP/aug-cc-pVTZ]
C     0.000000    1.082580    0.123180
C     1.082580    0.000000   -0.123180
C    -1.082580    0.000000   -0.123180
C     0.000000   -1.082580    0.123180
H     0.000000   -1.957007   -0.526411
H     1.957007    0.000000    0.526411
H    -1.957007    0.000000    0.526411
H     0.000000    1.957007   -0.526411
H     0.000000    1.422103    1.159302
H    -1.422103    0.000000   -1.159302
H     1.422103    0.000000   -1.159302
H     0.000000   -1.422103    1.159302
