16
cyclohexane-1-4-dione[B3LYP/aug-cc-pVTZ]
C    -0.061344    1.463150    0.000000
C     0.061344   -1.463150    0.000000
C    -0.332830    0.695697    1.281972
C    -0.332830    0.695697   -1.281972
C     0.332830   -0.695697    1.281972
C     0.332830   -0.695697   -1.281972
O     0.332830    2.606139    0.000000
O    -0.332830   -2.606139    0.000000
H    -0.003435    1.294970    2.128181
H    -1.417638    0.571706    1.364952
H    -1.417638    0.571706   -1.364952
H    -0.003435    1.294970   -2.128181
H     0.003435   -1.294970    2.128181
H     1.417638   -0.571706    1.364952
H     1.417638   -0.571706   -1.364952
H     0.003435   -1.294970   -2.128181
