16
cyclohexene[B3LYP/aug-cc-pVTZ]
C     0.005646    0.665273    1.302124
C    -0.005646   -0.665273    1.302124
C    -0.005646    1.497566    0.048624
C     0.005646   -1.497566    0.048624
C    -0.367769    0.670959   -1.190000
C     0.367769   -0.670959   -1.190000
H     0.020501    1.196537    2.247558
H    -0.020501   -1.196537    2.247558
H    -0.708445    2.326979    0.166811
H     0.977019    1.965639   -0.085347
H     0.708445   -2.326979    0.166811
H    -0.977019   -1.965639   -0.085347
H    -1.446378    0.487192   -1.195721
H    -0.141259    1.233380   -2.097788
H     1.446378   -0.487192   -1.195721
H     0.141259   -1.233380   -2.097788
