17
cyclohexanone[B3LYP/aug-cc-pVTZ]
C    -0.407739    1.083702    0.000000
C     0.155829    0.499472    1.282325
C     0.155829    0.499472   -1.282325
C     0.155829   -1.039311    1.263183
C     0.155829   -1.039311   -1.263183
C     0.820538   -1.590283    0.000000
O    -1.249483    1.954490    0.000000
H     1.188471    0.854961    1.375218
H    -0.408079    0.898882    2.123656
H    -0.408079    0.898882   -2.123656
H     1.188471    0.854961   -1.375218
H     0.657166   -1.415176    2.156695
H    -0.876952   -1.396180    1.313350
H    -0.876952   -1.396180   -1.313350
H     0.657166   -1.415176   -2.156695
H     1.882221   -1.322209    0.000000
H     0.775740   -2.681122    0.000000
