21
cyclohexane-1-3-5-triol[B3LYP/aug-cc-pVTZ]
C    -1.366891    0.474228   -0.146969
C     0.275353   -1.434457   -0.131432
C     1.099759    0.948113   -0.139858
C    -1.098479   -0.958309    0.321858
C    -0.269625    1.432558    0.319250
C     1.373754   -0.482882    0.325882
O    -2.056536   -1.879394   -0.204100
O    -0.446869    2.750757   -0.204758
O     2.605127   -0.984857   -0.196602
H    -1.412028    0.488864   -1.238475
H    -2.339459    0.812617    0.226852
H     0.466279   -2.436160    0.253202
H     0.288581   -1.495060   -1.222313
H     1.141058    0.982010   -1.231171
H     1.867909    1.627151    0.238193
H    -1.139106   -0.987591    1.419260
H    -0.278931    1.479268    1.416737
H     1.418949   -0.497589    1.423644
H    -2.934028   -1.628557    0.100071
H    -1.297930    3.093159    0.085131
H     3.321704   -0.405651    0.080163
