18
cyclohexane[B3LYP/aug-cc-pVTZ]
C    -1.267259    0.731652    0.227515
C     0.000000    1.463304   -0.227515
C    -1.267259   -0.731652   -0.227515
C     0.000000   -1.463304    0.227515
C     1.267259   -0.731652   -0.227515
C     1.267259    0.731652    0.227515
H     2.155238    1.244327   -0.149267
H    -2.155238    1.244327   -0.149267
H     0.000000    2.488655    0.149267
H     2.155238   -1.244327    0.149267
H     1.329045   -0.767324   -1.320511
H    -1.329045   -0.767324   -1.320511
H     0.000000    1.534649   -1.320511
H     0.000000   -2.488655   -0.149267
H     0.000000   -1.534649    1.320511
H    -2.155238   -1.244327    0.149267
H    -1.329045    0.767324    1.320511
H     1.329045    0.767324    1.320511
