16
cyclopentanecarbonitrile[B3LYP/aug-cc-pVTZ]
C     1.602438    0.009053   -0.031364
C    -1.371859    0.746330   -0.653168
C    -1.307418   -0.806205   -0.645590
C    -0.501396    1.220231    0.531175
C    -0.485334   -1.190374    0.598276
C     0.432357    0.028014    0.847230
N     2.515785   -0.006019   -0.731269
H    -0.984080    1.137519   -1.592694
H    -2.392524    1.113594   -0.555555
H    -2.295941   -1.262646   -0.625195
H    -0.810388   -1.165675   -1.546124
H     0.045306    2.137508    0.322211
H    -1.117683    1.398437    1.413455
H    -1.132932   -1.299095    1.469966
H     0.067826   -2.119975    0.478891
H     0.797203    0.060175    1.874581
