16
cyclopentanethiol[B3LYP/aug-cc-pVTZ]
H    -2.590075    1.232318   -0.681766
H    -2.238693    1.101270    1.028530
C    -1.912106    0.776892    0.039228
H    -2.427878   -1.128437   -0.935303
H    -2.435411   -1.206457    0.811001
C    -1.913085   -0.775183   -0.042566
H    -0.116781   -1.457884   -1.078076
H    -0.224491   -2.076259    0.562195
C    -0.425486   -1.206167   -0.060963
H    -0.202025    2.158408    0.251061
H    -0.233592    1.261134   -1.263701
C    -0.451026    1.195668   -0.195623
H     0.319079    0.094769    1.494721
C     0.345505    0.036292    0.405726
H     2.525374    1.067170    0.480115
S     2.110105   -0.075690   -0.096475
