16
cyclooctatetraene[B3LYP/aug-cc-pVTZ]
C     0.667787    1.563913    0.371103
C    -0.667787    1.563913    0.371103
C     0.667787   -1.563913    0.371103
C    -0.667787   -1.563913    0.371103
C     1.563913    0.667787   -0.371103
C    -1.563913    0.667787   -0.371103
C     1.563913   -0.667787   -0.371103
C    -1.563913   -0.667787   -0.371103
H     1.166556    2.358559    0.918777
H    -1.166556    2.358559    0.918777
H     1.166556   -2.358559    0.918777
H    -1.166556   -2.358559    0.918777
H     2.358559    1.166556   -0.918777
H    -2.358559    1.166556   -0.918777
H     2.358559   -1.166556   -0.918777
H    -2.358559   -1.166556   -0.918777
