16
cyclopentanol[B3LYP/aug-cc-pVTZ]
C     1.478824    0.602081   -0.167602
C     1.131874   -0.871035   -0.441609
C     0.138007    1.266828    0.236745
C    -0.007005   -1.147497    0.545787
C    -0.865878    0.122768    0.481642
O    -1.764277    0.100355   -0.639892
H     2.191316    0.663706    0.657603
H     1.942541    1.089472   -1.024485
H     0.768396   -0.991211   -1.463462
H     1.983364   -1.539018   -0.312244
H     0.250934    1.884221    1.127542
H    -0.256769    1.906427   -0.551166
H    -0.583006   -2.047024    0.320771
H     0.393171   -1.259290    1.558075
H    -1.443380    0.274160    1.398057
H    -2.387285   -0.623160   -0.521332
