20
cyclohexylamine[B3LYP/aug-cc-pVTZ]
C    -0.974235    1.501801    0.000000
C    -0.313710    0.943702    1.264192
C    -0.313710    0.943702   -1.264192
C    -0.313710   -0.588507    1.262787
C    -0.313710   -0.588507   -1.262787
C     0.322144   -1.187508    0.000000
N     1.768888   -0.919814    0.000000
H    -2.037859    1.237524    0.000000
H    -0.926534    2.593057    0.000000
H     0.714983    1.305090    1.322149
H    -0.829805    1.310092    2.154594
H    -0.829805    1.310092   -2.154594
H     0.714983    1.305090   -1.322149
H     0.204080   -0.970114    2.147778
H    -1.343580   -0.952418    1.329721
H    -1.343580   -0.952418   -1.329721
H     0.204080   -0.970114   -2.147778
H     0.112103   -2.266434    0.000000
H     2.210148   -1.329430   -0.814645
H     2.210148   -1.329430    0.814645
