7
cyclopropene[B3LYP/aug-cc-pVTZ]
C     0.000000    0.000000    0.861410
C     0.000000    0.643280   -0.499979
C     0.000000   -0.643280   -0.499979
H     0.000000    1.571117   -1.041246
H     0.000000   -1.571117   -1.041246
H     0.910708    0.000000    1.456887
H    -0.910708    0.000000    1.456887
