12
cyclopropanecarboxylicacid[B3LYP/aug-cc-pVTZ]
C    -0.270459   -0.778426    0.000000
C     0.336510    1.596630    0.743093
C     0.336510    1.596630   -0.743093
C     0.710072    0.327080    0.000000
O    -1.472192   -0.658476    0.000000
O     0.336510   -1.992090    0.000000
H     1.135578    2.100682    1.266594
H    -0.620002    1.590351    1.244203
H    -0.620002    1.590351   -1.244203
H     1.135578    2.100682   -1.266594
H     1.746444    0.027754    0.000000
H    -0.367938   -2.656783    0.000000
