14
cysteine[B3LYP/aug-cc-pVTZ]
N     0.132502    1.611883    0.297686
C     0.232379    0.161878    0.470580
C     1.642693   -0.320889    0.078786
O     2.061362   -1.407821    0.371619
O     2.340267    0.562288   -0.647593
H     1.773757    1.361340   -0.710982
C    -0.766023   -0.575233   -0.432100
S    -2.526785   -0.165977   -0.120311
H     0.072670   -0.163602    1.501691
H    -0.615582   -1.646562   -0.340585
H    -0.604235   -0.298474   -1.474310
H    -2.603154   -0.697517    1.114290
H    -0.830276    1.882258    0.128698
H     0.440533    2.104739    1.126558
