9
cyclopropane[B3LYP/aug-cc-pVTZ]
C     0.000000    0.868264    0.000000
C    -0.751939   -0.434132    0.000000
C     0.751939   -0.434132    0.000000
H     1.260331   -0.727653    0.907443
H     0.000000    1.455305    0.907443
H     1.260331   -0.727653   -0.907443
H    -1.260331   -0.727653    0.907443
H    -1.260331   -0.727653   -0.907443
H     0.000000    1.455305   -0.907443
