10
2-diazenylaceticacid[B3LYP/aug-cc-pVTZ]
O    -2.011808   -0.775896   -0.227722
O    -1.126265    1.260042   -0.024183
N     1.364084    0.336361    0.181249
N     2.444806    0.013050   -0.303623
C    -1.063326   -0.080407   -0.006367
C     0.305241   -0.661369    0.352535
H    -0.236965    1.621218    0.140319
H     2.475277   -1.001924   -0.544358
H     0.269739   -0.910304    1.417114
H     0.482809   -1.577382   -0.218226
