7
diaziridine[B3LYP/aug-cc-pVTZ]
C     0.000000    0.000000    0.794985
N     0.000000    0.748957   -0.440025
N     0.000000   -0.748957   -0.440025
H     0.911241    0.078114    1.376716
H    -0.911241   -0.078114    1.376716
H    -0.955168    0.999325   -0.681494
H     0.955168   -0.999325   -0.681494
