7
dichloroacetaldehyde[B3LYP/aug-cc-pVTZ]
C     0.392398   -0.014823    0.000000
C    -0.171128    1.398319    0.000000
H     1.474917   -0.012492    0.000000
Cl    -0.171128   -0.843017    1.485142
Cl    -0.171128   -0.843017   -1.485142
O     0.536130    2.365239    0.000000
H    -1.273222    1.452187    0.000000
