26
diethyl-butanedioate[B3LYP/aug-cc-pVTZ]
C     0.188348    1.924575   -0.056731
C    -0.188348   -1.924575   -0.056731
C    -1.353289    5.221305    0.159863
C     1.353289   -5.221305    0.159863
C    -0.494217    0.577874   -0.004149
C     0.494217   -0.577874   -0.004149
C    -0.188348    4.271183    0.002037
C     0.188348   -4.271183    0.002037
O     1.374196    2.105516   -0.191402
O    -1.374196   -2.105516   -0.191402
O    -0.708999    2.921630    0.057961
O     0.708999   -2.921630    0.057961
H    -0.993955    6.250306    0.122700
H    -2.082017    5.084576   -0.638821
H    -1.856365    5.069159    1.114540
H     0.993955   -6.250306    0.122700
H     2.082017   -5.084576   -0.638821
H     1.856365   -5.069159    1.114540
H    -1.172064    0.507988   -0.856621
H    -1.139461    0.549023    0.874561
H     1.139461   -0.549023    0.874561
H     1.172064   -0.507988   -0.856621
H     0.548903    4.392492    0.795533
H     0.323949    4.406624   -0.950483
H    -0.548903   -4.392492    0.795533
H    -0.323949   -4.406624   -0.950483
