16
diethyldisulfide[B3LYP/aug-cc-pVTZ]
C     0.340762    3.287075    0.629973
C    -0.340762   -3.287075    0.629973
C     0.695762    1.806304    0.586711
C    -0.695762   -1.806304    0.586711
S    -0.340762    0.974925   -0.694192
S     0.340762   -0.974925   -0.694192
H     0.525276    3.767942   -0.330968
H    -0.707346    3.438737    0.889650
H     0.949124    3.792561    1.381474
H    -0.525276   -3.767942   -0.330968
H     0.707346   -3.438737    0.889650
H    -0.949124   -3.792561    1.381474
H     0.508220    1.330131    1.547298
H     1.739469    1.654869    0.319514
H    -0.508220   -1.330131    1.547298
H    -1.739469   -1.654869    0.319514
