17
diethylsulfone[B3LYP/aug-cc-pVTZ]
O     0.424779    2.021733    0.000000
S     0.358890    0.561255    0.000000
C    -0.613205    0.101793    1.471297
C    -0.613205   -1.376626    1.826915
C    -0.613205    0.101793   -1.471297
C    -0.613205   -1.376626   -1.826915
O     1.592893   -0.223650    0.000000
H    -1.610423    0.511825    1.314449
H    -0.127133    0.701508    2.241547
H     0.402605   -1.766402    1.849066
H    -1.195297   -1.970903    1.125329
H    -1.053100   -1.509402    2.815892
H    -0.127133    0.701508   -2.241547
H    -1.610423    0.511825   -1.314449
H     0.402605   -1.766402   -1.849066
H    -1.053100   -1.509402   -2.815892
H    -1.195297   -1.970903   -1.125329
