13
dimethyl-dithio-carbamicacid[B3LYP/aug-cc-pVTZ]
C    -1.974833    0.997968    0.019134
N    -1.035538   -0.121579   -0.049562
C    -1.596834   -1.468210    0.005922
C     0.285310    0.130885   -0.019832
S     1.322882   -1.336523    0.009919
S     0.951587    1.656130    0.001950
H    -1.857982    1.544153    0.955692
H    -1.791240    1.695551   -0.795852
H    -2.985427    0.605274   -0.050728
H    -0.950304   -2.175190   -0.507850
H    -1.737185   -1.803323    1.037130
H    -2.560576   -1.471415   -0.497443
H     2.458114   -0.621579   -0.015256
