11
CH3SSSCH3[B3LYP/aug-cc-pVTZ]
S     0.000000    0.000000    1.056821
S     0.000000    1.684277   -0.162632
S     0.000000   -1.684277   -0.162632
C     1.760232    1.865036   -0.616415
C    -1.760232   -1.865036   -0.616415
H     1.824265    2.768057   -1.223005
H    -1.824265   -2.768057   -1.223005
H     2.373978    1.976752    0.273229
H     2.086891    1.011010   -1.204189
H    -2.373978   -1.976752    0.273229
H    -2.086891   -1.011010   -1.204189
