12
dihydro-3-2H-thiophenone[B3LYP/aug-cc-pVTZ]
C    -1.173933   -0.086028   -0.010331
C    -0.518527    1.277829   -0.187572
H    -1.108936    2.034769    0.327755
H    -0.554216    1.502662   -1.257211
C     0.925632    1.196028    0.287908
H     1.002801    1.342170    1.364887
H     1.581138    1.908061   -0.205713
C    -0.148546   -1.207971    0.168542
S     1.503686   -0.500212   -0.148246
H    -0.361635   -2.019932   -0.522700
O    -2.361719   -0.281087   -0.009054
H    -0.232119   -1.594793    1.186057
