29
diisobutylsulfone[B3LYP/aug-cc-pVTZ]
C    -1.420834    0.793414   -0.007311
S     0.000000   -0.346947   -0.000010
C    -2.762715    0.095086    0.252798
C     1.420834    0.793414    0.007287
O    -0.034424   -1.089441    1.260830
O     0.034424   -1.089442   -1.260849
C    -3.806859    1.145917    0.648578
C    -3.239642   -0.730464   -0.945570
C     2.762718    0.095073   -0.252778
C     3.806866    1.145882   -0.648603
C     3.239634   -0.730417    0.945635
H    -1.201428    1.513412    0.781999
H    -1.403435    1.302515   -0.971723
H    -2.618202   -0.575090    1.103169
H     1.201441    1.513390   -0.782045
H     1.403420    1.302541    0.971685
H    -4.763693    0.667778    0.861289
H    -3.504390    1.699334    1.539005
H    -3.969663    1.865389   -0.157619
H    -3.398705   -0.091329   -1.817765
H    -2.520753   -1.498674   -1.222382
H    -4.188123   -1.215944   -0.712598
H     2.618210   -0.575147   -1.103115
H     4.763704    0.667732   -0.861274
H     3.504408    1.699247   -1.539066
H     3.969659    1.865400    0.157555
H     3.398692   -0.091241    1.817801
H     2.520742   -1.498613    1.222481
H     4.188116   -1.215910    0.712694
