9
dioxathiolane[B3LYP/aug-cc-pVTZ]
S     1.236970    0.049907   -0.108638
O     0.170344   -1.178406    0.365430
O    -1.065349   -0.869992   -0.353876
C    -0.081416    1.306104    0.072269
C    -1.371008    0.445059    0.086653
H    -0.029247    1.976188   -0.782424
H     0.016390    1.873792    0.994257
H    -2.117419    0.815604   -0.614952
H    -1.786663    0.416113    1.095372
