12
dimethylcarbonate[B3LYP/aug-cc-pVTZ]
C     0.000000    0.000000    0.075891
C     0.000000    2.340391   -0.016158
C     0.000000   -2.340391   -0.016158
O     0.000000    0.000000    1.281653
O     0.000000    1.081938   -0.709482
O     0.000000   -1.081938   -0.709482
H    -0.887790    2.432734    0.606454
H     0.000000    3.096867   -0.794390
H     0.887790    2.432734    0.606454
H     0.000000   -3.096867   -0.794390
H    -0.887790   -2.432734    0.606454
H     0.887790   -2.432734    0.606454
