11
dimethylsulfone[B3LYP/aug-cc-pVTZ]
C     0.000000    1.419305   -0.919648
C     0.000000   -1.419305   -0.919648
O    -1.263521    0.000000    0.917477
O     1.263521    0.000000    0.917477
S     0.000000    0.000000    0.188195
H     0.000000    2.292780   -0.271559
H     0.900388    1.399538   -1.527965
H    -0.900388    1.399538   -1.527965
H     0.900388   -1.399538   -1.527965
H     0.000000   -2.292780   -0.271559
H    -0.900388   -1.399538   -1.527965
