10
dimethyldisulfide[B3LYP/aug-cc-pVTZ]
C    -0.975094    1.648785    0.791622
C     0.975094   -1.648785    0.791622
S    -0.975094    0.343346   -0.490829
S     0.975094   -0.343346   -0.490829
H    -0.781660    1.231798    1.776638
H    -1.975350    2.081790    0.775132
H    -0.243016    2.415025    0.551763
H     0.781660   -1.231798    1.776638
H     1.975350   -2.081790    0.775132
H     0.243016   -2.415025    0.551763
