22
dipropylsulfoxide[B3LYP/aug-cc-pVTZ]
C    -2.486191   -0.072064    0.552450
C    -1.024223    0.142152    0.935317
S    -0.047098    0.993348   -0.402402
O     0.947086    1.893124    0.293391
C    -2.714523   -1.122271   -0.534399
C     0.925143   -0.441946   -1.093699
C     2.275145   -0.662317   -0.419059
C     2.229720   -1.279940    0.977069
H    -2.917557    0.881786    0.239294
H    -3.024646   -0.367002    1.456918
H    -0.533523   -0.786746    1.217820
H    -0.928225    0.849831    1.758194
H    -2.255162   -0.831273   -1.480484
H    -2.300045   -2.089896   -0.243556
H    -3.779511   -1.261717   -0.720802
H     1.067876   -0.172666   -2.140309
H     0.277509   -1.317972   -1.055491
H     2.793803    0.296174   -0.372767
H     2.859562   -1.304564   -1.083624
H     1.774757   -0.601276    1.697093
H     1.672070   -2.219643    0.985066
H     3.239545   -1.495279    1.327871
