24
diphenylsulfoxide[B3LYP/aug-cc-pVTZ]
S     0.000000    1.198969   -1.022088
O    -0.000019    2.525292   -0.313898
C    -1.379883    0.233902   -0.310543
C    -1.827639   -0.916094   -0.948304
C    -2.903944   -1.613131   -0.411977
C    -3.530081   -1.148516    0.740491
C    -3.084519    0.016906    1.355299
C    -2.005880    0.718377    0.827890
C     1.379888    0.233926   -0.310531
C     2.005793    0.718340    0.827976
C     3.084431    0.016873    1.355398
C     3.530079   -1.148482    0.740528
C     2.904037   -1.613032   -0.412019
C     1.827738   -0.915998   -0.948359
H    -1.351533   -1.264663   -1.855542
H    -3.259487   -2.510929   -0.899140
H    -4.371765   -1.688895    1.151883
H    -3.580077    0.384290    2.243835
H    -1.652216    1.637972    1.273661
H     1.652066    1.637890    1.273792
H     3.579920    0.384210    2.243992
H     4.371760   -1.688857    1.151931
H     3.259655   -2.510772   -0.899234
H     1.351714   -1.264502   -1.855665
