12
E-1-chloro-1-butene[B3LYP/aug-cc-pVTZ]
H     0.284273   -0.845671    1.087487
C     0.403159   -0.010172    0.405810
H    -0.632701    1.282616   -0.927159
Cl    -2.268012   -0.194803   -0.026317
C    -0.658000    0.458163   -0.230058
H     1.762492    1.394082   -0.449259
H     2.138737    0.922123    1.195638
C     1.787551    0.540851    0.231531
H     3.784823   -0.084931   -0.358058
H     2.833963   -1.363785    0.395683
H     2.491345   -0.877346   -1.263208
C     2.782835   -0.508081   -0.279571
