10
dithiooxamide[B3LYP/aug-cc-pVTZ]
S     2.159288    0.225879   -0.000022
S    -2.159288   -0.225879   -0.000022
N     0.380905   -1.736090    0.000033
N    -0.380905    1.736090    0.000033
C     0.630428   -0.433440    0.000013
C    -0.630428    0.433440    0.000008
H     1.142640   -2.391307    0.000019
H    -0.586716   -2.040345    0.000035
H     0.586717    2.040345    0.000036
H    -1.142640    2.391307    0.000026
