16
E-1-4-hexadiene[B3LYP/aug-cc-pVTZ]
C     2.774263    0.471453    0.018406
H     3.025428    1.225242   -0.732402
H     2.694425    0.968642    0.985285
H     3.620197   -0.219765    0.061021
C     1.508736   -0.244855   -0.337967
H     1.506561   -0.764857   -1.293079
C     0.414083   -0.292101    0.413417
H     0.408451    0.231044    1.366497
C    -0.843677   -1.027566    0.061292
H    -0.699053   -1.585556   -0.870041
H    -1.042235   -1.789762    0.825223
C    -2.083249   -0.179059   -0.069246
H    -3.009282   -0.738490   -0.164929
C    -2.134346    1.146986   -0.084084
H    -3.075965    1.668839   -0.188328
H    -1.243382    1.755515   -0.000158
