16
E-1-3-hexadiene[B3LYP/aug-cc-pVTZ]
H    -0.081998    3.962781    0.000000
H     1.401922    2.867737    0.000000
C     0.322716    2.960628    0.000000
H    -1.546765    2.025344    0.000000
C    -0.469613    1.886059    0.000000
H     1.076131    0.373269    0.000000
C     0.000000    0.512043    0.000000
H    -1.883157   -0.373116    0.000000
C    -0.810602   -0.551298    0.000000
H    -0.872163   -2.479687    0.867089
H    -0.872163   -2.479687   -0.867089
C    -0.407996   -1.995454    0.000000
H     1.273015   -3.356046    0.000000
H     1.577427   -1.862279   -0.881724
H     1.577427   -1.862279    0.881724
C     1.090549   -2.281317    0.000000
