9
E-1-chloro-1-propene[B3LYP/aug-cc-pVTZ]
C     0.000000    0.452712    0.000000
C     0.928558   -0.489343    0.000000
C     2.397943   -0.202796    0.000000
Cl    -1.714743    0.109952    0.000000
H     0.209814    1.512034    0.000000
H     0.622206   -1.529082    0.000000
H     2.601687    0.867563    0.000000
H     2.878957   -0.641565    0.877384
H     2.878957   -0.641565   -0.877384
