10
E-2-butenenitrile[B3LYP/aug-cc-pVTZ]
H     2.655683    0.401193    0.000000
H     2.622682   -1.138527    0.875361
H     2.622682   -1.138527   -0.875361
C     2.242257   -0.606309    0.000000
H     0.256482   -1.562903    0.000000
C     0.752473   -0.598413    0.000000
H     0.451575    1.489847    0.000000
C     0.000000    0.504802    0.000000
N    -2.576635    0.473241    0.000000
C    -1.423506    0.472625    0.000000
