18
E2diazino-1-2methylprop2enoxy-ethenolate[B3LYP/aug-cc-pVTZ]
O    -0.050156    0.740035    0.079572
O     1.936027    1.687629   -0.182327
N     3.213504   -0.696582   -0.044778
N     4.330864   -0.709304   -0.134489
C     1.298833    0.673982   -0.023993
C     1.909663   -0.650513    0.057625
C    -0.856529   -0.436953    0.311416
C    -2.276948   -0.004647    0.447772
C    -3.260722   -0.448114   -0.326484
C    -4.699726   -0.063453   -0.200434
H     1.420216   -1.598861    0.184598
H    -0.512068   -0.920689    1.230337
H    -0.746910   -1.133819   -0.522395
H    -2.482030    0.705676    1.242038
H    -3.020014   -1.148491   -1.122413
H    -5.062145    0.389855   -1.126289
H    -4.856995    0.645101    0.612065
H    -5.325023   -0.940694   -0.016433
