9
E-3-bromoacrylicacid[B3LYP/aug-cc-pVTZ]
Br    -1.882364    0.535029    0.000000
O     2.696637   -1.863890    0.000000
O     2.849176    0.381701    0.000000
C     0.691544   -0.667087    0.000000
C     2.169010   -0.615182    0.000000
C     0.000000    0.465322    0.000000
H     0.218899   -1.637846    0.000000
H     0.473941    1.435314    0.000000
H     3.660057   -1.764272    0.000000
