13
E-3-pentenenitrile[B3LYP/aug-cc-pVTZ]
H     3.609044    0.273076    0.113372
H     3.098636   -1.103376   -0.844452
H     2.741762   -1.060175    0.886842
C     2.803885   -0.454173   -0.016457
H     1.487319    0.854078   -1.202776
C     1.507467    0.229794   -0.313018
H     0.395283   -0.497491    1.305299
C     0.405132    0.126989    0.418299
C    -0.883366    0.846575    0.103693
N    -2.901787   -0.791599   -0.168867
C    -2.016649   -0.066647   -0.054156
H    -0.780939    1.432476   -0.811185
H    -1.137406    1.547375    0.904805
