13
E-5-azido-1-chloropent-1-en-3-yne[B3LYP/aug-cc-pVTZ]
Cl     4.447941   -0.116167    0.000012
N    -3.025270   -0.496796   -0.000055
N    -4.225241   -0.238014   -0.000076
N    -5.349023   -0.121568   -0.000107
C    -2.135877    0.693862    0.000077
C    -0.744389    0.279137    0.000046
C     0.418235   -0.030637    0.000023
C     1.770768   -0.449000   -0.000006
C     2.794415    0.405041    0.000048
H    -2.339149    1.308733   -0.883213
H    -2.339163    1.308547    0.883494
H     1.960606   -1.516013   -0.000076
H     2.680539    1.477792    0.000117
