11
E-3-penten-1-yne[B3LYP/aug-cc-pVTZ]
C    -2.320917   -0.461628    0.000000
H    -2.746079   -0.959757    0.875622
H    -2.746079   -0.959757   -0.875622
H    -2.655927    0.575371    0.000000
C    -0.831837   -0.562138    0.000000
H    -0.407944   -1.560710    0.000000
C     0.000000    0.484435    0.000000
H    -0.409236    1.490531    0.000000
C     1.415974    0.385941    0.000000
C     2.618043    0.340629    0.000000
H     3.677687    0.290883    0.000000
