18
E-hex-2-ene[B3LYP/aug-cc-pVTZ]
C     3.184312    0.214662   -0.156388
C     1.804466   -0.364204   -0.216238
C     0.743151    0.105154    0.431736
C    -0.640500   -0.468565    0.368176
C    -1.685118    0.519417   -0.171606
C    -3.099443   -0.056883   -0.186480
H     3.223229    1.089985    0.492451
H     3.904316   -0.517661    0.218689
H     3.531684    0.512657   -1.149293
H     1.681810   -1.243047   -0.845147
H     0.864249    0.985574    1.060220
H    -0.950299   -0.782190    1.372044
H    -0.636597   -1.370501   -0.250054
H    -1.397617    0.823029   -1.181416
H    -1.666289    1.428500    0.436494
H    -3.819163    0.665084   -0.574592
H    -3.155216   -0.949735   -0.812711
H    -3.421316   -0.339183    0.818118
