9
ethanethiol[B3LYP/aug-cc-pVTZ]
C     1.516650    0.705578    0.000000
C     0.000000    0.834467    0.000000
S    -0.755427   -0.847361    0.000000
H     1.868133    0.170753    0.882762
H     1.868133    0.170753   -0.882762
H     1.975965    1.695046    0.000000
H    -0.341365    1.368763   -0.884290
H    -0.341365    1.368763    0.884290
H    -2.042577   -0.456566    0.000000
