8
ethanimine[B3LYP/aug-cc-pVTZ]
C    -1.030686   -0.636526    0.000000
C     0.000000    0.445344    0.000000
N     1.241167    0.190751    0.000000
H    -0.556818   -1.615743    0.000000
H    -1.676866   -0.544559    0.876683
H    -1.676866   -0.544559   -0.876683
H    -0.389088    1.470939    0.000000
H     1.795584    1.045760    0.000000
