14
E-pent-3-en-2-one[B3LYP/aug-cc-pVTZ]
C     0.000000    0.531086    0.000000
C    -1.331860    0.464679    0.000000
C     0.850788   -0.688356    0.000000
C    -2.260297    1.629509    0.000000
C     2.345543   -0.454617    0.000000
O     0.383363   -1.811009    0.000000
H     0.503575    1.491936    0.000000
H    -1.777905   -0.525425    0.000000
H    -1.728950    2.580430    0.000000
H    -2.916004    1.597195    0.874296
H    -2.916004    1.597195   -0.874296
H     2.872893   -1.404393    0.000000
H     2.635225    0.128660    0.877308
H     2.635225    0.128660   -0.877308
