23
E-oct-2-enal[B3LYP/aug-cc-pVTZ]
C     2.611997    0.223827   -0.300825
C     1.549505    0.338129    0.501487
C     3.878275   -0.323343    0.188620
C    -4.786972   -0.124165   -0.302575
C     0.207729    0.863036    0.114332
C    -3.411591   -0.666545    0.081940
C    -0.908819   -0.183212    0.275038
C    -2.290909    0.359831   -0.087143
O     4.877910   -0.455105   -0.482993
H     2.582459    0.530856   -1.340266
H     1.654351    0.007675    1.533289
H     3.872769   -0.625229    1.256593
H    -5.051986    0.745375    0.302406
H    -5.564751   -0.875434   -0.160722
H    -4.810822    0.183879   -1.349781
H    -0.030363    1.722364    0.751305
H     0.231964    1.227423   -0.914648
H    -3.185367   -1.549033   -0.523759
H    -3.431941   -1.009179    1.120746
H    -0.917566   -0.545349    1.307622
H    -0.678207   -1.048957   -0.351592
H    -2.280124    0.713817   -1.123199
H    -2.508987    1.237280    0.530712
