12
ethylenediamine[B3LYP/aug-cc-pVTZ]
C     0.397467    0.657442    0.000000
C    -0.397467   -0.657442    0.000000
N    -0.397467    1.884333    0.000000
N     0.397467   -1.884333    0.000000
H     0.996875   -1.932923    0.815009
H     0.996875   -1.932923   -0.815009
H    -0.996875    1.932923    0.815009
H    -0.996875    1.932923   -0.815009
H    -1.053507   -0.679296    0.874859
H    -1.053507   -0.679296   -0.874859
H     1.053507    0.679296    0.874859
H     1.053507    0.679296   -0.874859
