26
C5H7COOC2H5[B3LYP/aug-cc-pVTZ]
C     0.023324   -0.446803   -0.001938
C    -1.248311    0.370867   -0.000992
O    -1.311122    1.575337   -0.000848
C     1.295426    0.393952    0.000986
H    -0.011251   -1.111297    0.865725
H    -0.010002   -1.106796   -0.873123
O    -2.335846   -0.428912   -0.000518
C    -3.622317    0.232251   -0.000074
H    -3.685904    0.871725   -0.880589
H    -3.684388    0.873508    0.879239
C    -4.691361   -0.836651    0.001907
H    -5.676911   -0.369592    0.002210
H    -4.612492   -1.468437    0.886478
H    -4.613940   -1.470332   -0.881440
H     1.291757    1.055257   -0.868109
C     2.564097   -0.458735   -0.000991
H     1.291137    1.050182    0.873940
H     2.560871   -1.120937    0.871655
C     3.850414    0.368061    0.002127
H     2.561668   -1.115615   -0.877655
H     3.854143    1.028939   -0.869607
C     5.116582   -0.486575   -0.000026
H     3.853418    1.023461    0.877993
H     5.157271   -1.133612    0.878700
H     6.015118    0.131837    0.002416
H     5.158130   -1.127901   -0.882890
