10
ethylamine[B3LYP/aug-cc-pVTZ]
C     1.217924   -0.353536    0.000000
C     0.000000    0.571510    0.000000
N    -1.306888   -0.088652    0.000000
H     1.220384   -0.996853    0.882589
H     1.220384   -0.996853   -0.882589
H     2.148415    0.218943    0.000000
H     0.037134    1.227011   -0.872854
H     0.037134    1.227011    0.872854
H    -1.411390   -0.683272    0.813701
H    -1.411390   -0.683272   -0.813701
