17
ethylpropanoate[B3LYP/aug-cc-pVTZ]
C     0.000000    0.540816    0.000000
C     1.243175    2.751600    0.000000
C    -0.679664   -3.043361    0.000000
C     1.345131    1.232352    0.000000
C    -1.070032   -1.582821    0.000000
O    -1.072742    1.091993    0.000000
O     0.146706   -0.800498    0.000000
H     0.706894    3.109292    0.877772
H     2.237781    3.197410    0.000000
H     0.706894    3.109292   -0.877772
H    -1.577230   -3.662892    0.000000
H    -0.092760   -3.292082   -0.884003
H    -0.092760   -3.292082    0.884003
H     1.899563    0.870429    0.869102
H     1.899563    0.870429   -0.869102
H    -1.655657   -1.316641    0.880006
H    -1.655657   -1.316641   -0.880006
