14
ethyl-urea[B3LYP/aug-cc-pVTZ]
C    -2.624091   -0.223414    0.002412
H    -2.704638   -0.964618    0.799272
H    -3.440588    0.487321    0.123953
H    -2.754705   -0.730974   -0.953978
C    -1.283867    0.494871    0.060801
H    -1.250407    1.248579   -0.732964
H    -1.188350    1.024473    1.014316
N    -0.191108   -0.449863   -0.112715
H    -0.395796   -1.431081   -0.024719
N     1.480161    1.166240    0.046537
H     2.460546    1.348304   -0.083400
H     0.852393    1.859667   -0.321530
C     1.149206   -0.174524   -0.013340
O     1.993836   -1.054739    0.042882
