12
ethylenedithiocyanate[B3LYP/aug-cc-pVTZ]
S    -0.485479    1.616939   -0.499622
S     0.485479   -1.616939   -0.499622
N     0.485479    4.238358    0.048550
N    -0.485479   -4.238358    0.048550
C     0.219813    0.726015    0.967138
C    -0.219813   -0.726015    0.967138
C     0.100064    3.168473   -0.157999
C    -0.100064   -3.168473   -0.157999
H    -0.158457    1.213127    1.862783
H     1.302444    0.822259    0.936478
H    -1.302444   -0.822259    0.936478
H     0.158457   -1.213127    1.862783
