15
ethylmethylestersulfurousacid[B3LYP/aug-cc-pVTZ]
C     3.202611   -0.606388   -0.196480
C     2.057940    0.309114    0.175790
O     0.826178   -0.417197   -0.065662
S    -0.533353    0.384629    0.403904
O    -0.730154    1.533535   -0.482721
O    -1.448610   -0.871512   -0.158233
C    -2.865846   -0.639006   -0.072695
H     3.194710   -1.508286    0.414470
H     3.137485   -0.896520   -1.244359
H     4.150175   -0.089481   -0.039400
H     2.057795    1.214467   -0.432283
H     2.110019    0.595329    1.230062
H    -3.159148    0.196081   -0.707639
H    -3.330310   -1.554113   -0.428240
H    -3.174611   -0.452460    0.958160
