10
ethynylthiourea[B3LYP/aug-cc-pVTZ]
S    -2.081317   -0.343098    0.000000
N     0.542113   -0.729566    0.000018
N    -0.127051    1.471695   -0.000093
C    -0.501303    0.182134   -0.000006
C     1.846197   -0.419257   -0.000003
C     3.006498   -0.108367    0.000000
H     0.254221   -1.695995    0.000037
H     0.842627    1.744288    0.000376
H    -0.845401    2.171629    0.000218
H     4.035849    0.147679   -0.000061
