11
diethynoxymethane[B3LYP/aug-cc-pVTZ]
O     1.114134   -0.637896    0.000386
O    -1.114134   -0.637904   -0.000379
C    -0.000004    0.243836    0.000033
C     2.273010   -0.042046    0.000077
C    -2.273014   -0.042063   -0.000138
C     3.353062    0.474479   -0.000141
C    -3.353053    0.474491    0.000162
H    -0.000326    0.856536    0.903526
H     0.000313    0.856601   -0.903415
H     4.314214    0.920528   -0.000423
H    -4.314202    0.920549    0.000292
