11
ethynylsulfanylmethylsulfanylethyne[B3LYP/aug-cc-pVTZ]
S    -1.085714    0.117394    0.777209
S     1.616055   -1.007193    0.004656
C    -0.092200   -0.704472   -0.547441
C    -2.551811    0.291449   -0.041856
C     2.295903    0.534104   -0.121587
C    -3.614199    0.432090   -0.592782
C     2.852247    1.598818   -0.193854
H    -0.096062   -0.091324   -1.442322
H    -0.512041   -1.685333   -0.754731
H    -4.551006    0.558816   -1.074999
H     3.334006    2.542688   -0.252663
