12
fluorobenzene[B3LYP/aug-cc-pVTZ]
C     0.000000    0.000000   -1.828651
C     0.000000    1.203661   -1.131682
C     0.000000   -1.203661   -1.131682
C     0.000000    1.212801    0.259047
C     0.000000   -1.212801    0.259047
C     0.000000    0.000000    0.924672
F     0.000000    0.000000    2.277491
H     0.000000    0.000000   -2.909624
H     0.000000    2.141917   -1.669399
H     0.000000   -2.141917   -1.669399
H     0.000000    2.134302    0.823249
H     0.000000   -2.134302    0.823249
