12
gamma-butyrolactone[B3LYP/aug-cc-pVTZ]
H    -0.333392    2.025670   -0.458487
H     1.594629    0.802015   -1.272848
H     1.833366   -1.474020   -0.539014
H    -0.033157    1.529153    1.201325
C     0.022543    1.205712    0.159355
H     2.219734    1.139182    0.340551
C     1.405703    0.669564   -0.207531
H     1.546270   -1.040847    1.156693
C     1.270591   -0.821031    0.123306
O    -2.082550   -0.030351   -0.067109
C    -0.888795   -0.002092    0.002806
O    -0.128413   -1.131408   -0.044870
