12
fulvene[B3LYP/aug-cc-pVTZ]
C     0.000000    0.735787   -1.400081
C     0.000000   -0.735787   -1.400081
C     0.000000    1.175419   -0.125488
C     0.000000   -1.175419   -0.125488
C     0.000000    0.000000    0.758403
C     0.000000    0.000000    2.096421
H     0.000000    1.347657   -2.289398
H     0.000000   -1.347657   -2.289398
H     0.000000    2.197794    0.217520
H     0.000000   -2.197794    0.217520
H     0.000000   -0.923202    2.660823
H     0.000000    0.923202    2.660823
