12
hexa-1-5-diene-3-yne[B3LYP/aug-cc-pVTZ]
C     3.128267   -0.342469   -0.000004
C     1.993557    0.059429   -0.000007
C     0.675269    0.570452   -0.000011
C    -0.435926   -0.189337    0.000004
C    -1.776186    0.350545    0.000000
C    -2.884737   -0.395944    0.000015
H     4.125512   -0.705141   -0.000001
H     0.578120    1.651724   -0.000027
H    -0.335274   -1.269130    0.000020
H    -1.864320    1.432522   -0.000016
H    -2.837239   -1.477747    0.000031
H    -3.868261    0.051719    0.000011
