10
glyoxime[B3LYP/aug-cc-pVTZ]
O     1.166590    2.672477    0.000000
O    -1.166590   -2.672477    0.000000
N     1.166590    1.298532    0.000000
N    -1.166590   -1.298532    0.000000
C     0.027863    0.723227    0.000000
C    -0.027863   -0.723227    0.000000
H     0.248784    2.997834    0.000000
H    -0.248784   -2.997834    0.000000
H    -0.917383    1.269774    0.000000
H     0.917383   -1.269774    0.000000
