10
glycine[B3LYP/aug-cc-pVTZ]
C     0.000000    0.554399    0.000000
O     1.166268    0.850486    0.000000
O    -0.993246    1.475442    0.000000
C    -0.558650   -0.860872    0.000000
N     0.418261   -1.927134    0.000000
H    -0.577661    2.350468    0.000000
H    -1.213149   -0.954876    0.869365
H    -1.213149   -0.954876   -0.869365
H     1.021928   -1.859686    0.809956
H     1.021928   -1.859686   -0.809956
