9
guanidine[B3LYP/aug-cc-pVTZ]
C    -0.017919    0.121480    0.000209
N    -0.222845    1.381237    0.009408
N    -0.973006   -0.891055    0.074673
N     1.277018   -0.374139   -0.080092
H    -1.210366    1.609782   -0.043242
H    -1.924501   -0.586118   -0.046428
H    -0.761135   -1.727618   -0.447294
H     1.968806    0.351343    0.024724
H     1.466538   -1.188574    0.483063
