22
heptanal[B3LYP/aug-cc-pVTZ]
C     2.934907   -1.847531    0.000000
C    -3.741441    1.922109    0.000000
C     2.204069   -0.532137    0.000000
C    -2.216713    2.017532    0.000000
C     0.683613   -0.629266    0.000000
C    -1.526489    0.653370    0.000000
C     0.000000    0.738127    0.000000
O     2.412916   -2.933644    0.000000
H     4.042127   -1.761298    0.000000
H    -4.203476    2.910263    0.000000
H    -4.102888    1.387142    0.880650
H    -4.102888    1.387142   -0.880650
H     2.570407    0.032064    0.867377
H     2.570407    0.032064   -0.867377
H    -1.887390    2.587509    0.874110
H    -1.887390    2.587509   -0.874110
H     0.362464   -1.205426   -0.870679
H     0.362464   -1.205426    0.870679
H    -1.856331    0.082600    0.874379
H    -1.856331    0.082600   -0.874379
H     0.328909    1.309595   -0.874725
H     0.328909    1.309595    0.874725
