20
hexane[B3LYP/aug-cc-pVTZ]
C     1.752978    0.132983    0.595759
C     2.270241   -1.006545   -0.282683
C     0.797724    1.099291   -0.117681
C    -0.524607    0.497784   -0.611141
C    -1.447868   -0.017439    0.494787
C    -2.787022   -0.527764   -0.035684
H    -2.645338   -1.354700   -0.734820
H     2.766819   -0.619752   -1.175521
H    -3.427267   -0.884472    0.772434
H     2.992417   -1.620604    0.257299
H     1.465980   -1.665190   -0.613039
H    -3.327819    0.259908   -0.564432
H     1.267957   -0.282455    1.482703
H    -0.954091   -0.819080    1.049556
H     2.605211    0.708606    0.966413
H    -1.624471    0.786112    1.216882
H     0.573150    1.931568    0.556617
H     1.322016    1.537463   -0.972764
H    -0.325283   -0.311677   -1.319828
H    -1.057960    1.264417   -1.181643
