15
hexahydropyrimidin-2-one[B3LYP/aug-cc-pVTZ]
C    -0.164367    1.106122    0.000000
C     0.630174   -1.644396    0.000000
C    -0.028352   -1.065946    1.246291
C    -0.028352   -1.065946   -1.246291
N    -0.028352    0.386872    1.163911
N    -0.028352    0.386872   -1.163911
O    -0.348128    2.315601    0.000000
H     1.692401   -1.394346    0.000000
H     0.538186   -2.730567    0.000000
H    -1.047815   -1.460098    1.343027
H     0.519860   -1.364705    2.140522
H     0.519860   -1.364705   -2.140522
H    -1.047815   -1.460098   -1.343027
H    -0.223673    0.927248    1.988963
H    -0.223673    0.927248   -1.988963
