21
hexanamide[B3LYP/aug-cc-pVTZ]
C    -2.341682    0.111370    0.062323
C     4.074930   -0.182147    0.064954
C    -1.005389   -0.584989    0.280499
C     2.730567    0.451968   -0.287379
C     0.185855    0.257397   -0.174608
C     1.531563   -0.380318    0.168545
N    -3.379576   -0.706845   -0.277643
O    -2.490867    1.311718    0.200335
H     4.179038   -0.312677    1.144121
H     4.907792    0.434652   -0.275258
H     4.181268   -1.165989   -0.397058
H    -0.928223   -0.779637    1.355244
H    -0.998311   -1.560235   -0.212711
H     2.671429    0.604297   -1.369128
H     2.667243    1.447267    0.161800
H     0.120409    0.418511   -1.254432
H     0.107976    1.243573    0.284716
H     1.592586   -0.535216    1.251266
H     1.594355   -1.376608   -0.283106
H    -4.296353   -0.304735   -0.373362
H    -3.270304   -1.698720   -0.377277
