8
hydroxymethylperoxide[B3LYP/aug-cc-pVTZ]
C    -0.521080    0.491811    0.031617
O    -1.757960   -0.126244   -0.064518
O     0.469147   -0.535551   -0.126038
O     1.752362    0.137407   -0.041874
H    -1.897823   -0.685361    0.707197
H     2.117970   -0.266792    0.756685
H    -0.442357    1.205959   -0.787605
H    -0.359703    0.990434    0.993457
