8
hydroxyacetaldehyde[B3LYP/aug-cc-pVTZ]
C     0.000000    0.928126    0.000000
C     0.925344   -0.256408    0.000000
O    -1.349713    0.557465    0.000000
O     0.516462   -1.391513    0.000000
H    -1.374140   -0.411223    0.000000
H     0.240237    1.542269    0.879378
H     0.240237    1.542269   -0.879378
H     2.007614   -0.031238    0.000000
