20
histidine[B3LYP/aug-cc-pVTZ]
N    -1.201957    1.645890    0.152460
C    -1.122137    0.221629   -0.199424
C    -2.533221   -0.393283   -0.152217
O    -2.748314   -1.574901   -0.095497
O    -3.514020    0.517294   -0.229519
H    -3.060866    1.389226   -0.232101
C    -0.112058   -0.609453    0.605562
C     1.310812   -0.315666    0.248158
N     1.798228    0.972889    0.135796
C     3.064823    0.857017   -0.182550
N     3.431444   -0.446678   -0.283277
C     2.315898   -1.207793   -0.013417
H    -0.839634    0.175548   -1.255509
H    -0.281816   -0.417857    1.670751
H    -0.320702   -1.665837    0.443593
H     3.752508    1.668827   -0.350821
H     4.345579   -0.792723   -0.516050
H     2.335670   -2.282388   -0.032339
H    -1.210332    1.750849    1.162273
H    -0.360429    2.115801   -0.161192
