12
hydroxymethyldisulfanylmethanol[B3LYP/aug-cc-pVTZ]
S    -0.588948   -0.854750   -0.597619
S     0.588932    0.854989   -0.597326
O    -2.696710    0.623868    0.346427
O     2.696697   -0.624032    0.346082
C    -1.855232   -0.435708    0.688286
C     1.855275    0.435453    0.688361
H    -1.332873   -0.262522    1.630730
H    -2.466770   -1.333392    0.769900
H     1.332960    0.261952    1.630771
H     2.466846    1.333087    0.770258
H    -2.164171    1.423911    0.259063
H     2.164119   -1.424019    0.258442
