13
isocyanato-methylsulfanyl-isocyanate[B3LYP/aug-cc-pVTZ]
S     0.000005    0.180949   -0.000031
O     4.161913    1.053413    0.440220
O    -4.161949    1.053366   -0.440227
N     2.574769   -0.356348   -0.604807
N    -2.574743   -0.356296    0.604841
C     1.346924   -1.035946   -0.351650
C    -1.346915   -1.035919    0.351674
C     3.340117    0.359645   -0.014871
C    -3.340125    0.359642    0.014882
H     1.444429   -1.712184    0.498745
H     1.081666   -1.610562   -1.235849
H    -1.081634   -1.610502    1.235889
H    -1.444453   -1.712191   -0.498690
