17
isobutyl-formate[B3LYP/aug-cc-pVTZ]
C    -2.290734    0.312473   -0.152529
C     1.730575    1.318317    0.376938
C     2.349480   -1.102336   -0.024284
C    -0.050404   -0.444296    0.035206
C     1.350871    0.017165   -0.333148
O    -2.730830   -0.652419    0.410787
O    -1.002022    0.556886   -0.408491
H    -2.898837    1.139165   -0.541138
H     2.726140    1.646204    0.075225
H     1.741116    1.179254    1.460987
H     1.028303    2.118260    0.146337
H     3.358716   -0.805723   -0.310746
H     2.105762   -2.020077   -0.561819
H     2.364512   -1.333019    1.043503
H    -0.300747   -1.390490   -0.444761
H    -0.160689   -0.574017    1.113477
H     1.359807    0.196764   -1.412535
