24
inositol[B3LYP/aug-cc-pVTZ]
C    -1.325775    0.584643    0.237990
C     0.155142   -1.441860    0.227032
C     1.169971    0.852886    0.241238
C    -0.155142    1.441860   -0.227032
C    -1.169971   -0.852886   -0.241238
C     1.325775   -0.584643   -0.237990
O    -2.565352    1.060854   -0.274243
O     0.365045   -2.749548   -0.293829
O     2.199913    1.693855   -0.266419
O    -0.365045    2.749548    0.293829
O    -2.199913   -1.693855    0.266419
O     2.565352   -1.060854    0.274243
H    -1.353744    0.594834    1.334200
H     0.153684   -1.479157    1.323029
H     1.196484    0.861338    1.337560
H    -0.153684    1.479157   -1.323029
H    -1.196484   -0.861338   -1.337560
H     1.353744   -0.594834   -1.334200
H    -2.646403    1.991559   -0.037548
H    -0.403701   -3.285449   -0.068670
H     3.047455    1.296990   -0.036282
H     0.403701    3.285449    0.068670
H    -3.047455   -1.296990    0.036282
H     2.646403   -1.991559    0.037548
