16
isatin[B3LYP/aug-cc-pVTZ]
O    -1.742007    1.965021   -0.000021
C    -1.177229    0.903277   -0.000010
C     0.255043    0.578698   -0.000007
C     0.379731   -0.819241    0.000009
C     1.623314   -1.425094    0.000016
C     2.745582   -0.595433    0.000007
C     2.634874    0.794760   -0.000010
C     1.378592    1.391778   -0.000017
N    -0.883171   -1.422253    0.000016
C    -1.904802   -0.492965    0.000006
O    -3.086643   -0.710872    0.000008
H     1.729179   -2.501176    0.000029
H     3.728266   -1.047628    0.000012
H     3.527112    1.404141   -0.000017
H     1.265488    2.467328   -0.000029
H    -1.049284   -2.414768    0.000030
