14
isobutane[B3LYP/aug-cc-pVTZ]
C     0.000000    0.000000    0.371001
C     0.000000    1.458065   -0.095429
C    -1.262722   -0.729033   -0.095429
C     1.262722   -0.729033   -0.095429
H    -1.282986   -1.759266    0.264412
H     1.282986   -1.759266    0.264412
H    -0.882076    1.990731    0.264412
H     0.882076    1.990731    0.264412
H    -2.165062   -0.231466    0.264412
H    -1.313214   -0.758184   -1.187000
H     2.165062   -0.231466    0.264412
H     0.000000    1.516369   -1.187000
H     1.313214   -0.758184   -1.187000
H     0.000000    0.000000    1.466243
