14
isopropyl-formate[B3LYP/aug-cc-pVTZ]
C     1.617743   -0.394675    0.283252
C    -1.893251   -0.863530   -0.252957
C    -0.944016    1.436162    0.264110
C    -0.675794    0.040279   -0.273129
O     2.051181    0.295615   -0.599753
O     0.330551   -0.615131    0.565758
H     2.240430   -0.955104    0.992486
H    -2.678480   -0.440562   -0.880088
H    -1.648581   -1.854994   -0.632319
H    -2.282128   -0.967445    0.760564
H    -1.698111    1.930159   -0.349869
H    -0.039874    2.042006    0.242524
H    -1.314363    1.388173    1.289063
H    -0.260844    0.104471   -1.278058
