12
isoflurane[B3LYP/aug-cc-pVTZ]
C    -0.218615    0.231720   -0.334249
C     2.099372    0.063633    0.050519
C    -1.485571   -0.576666   -0.009374
O     0.817838   -0.322832    0.399628
F     2.373326   -0.321108   -1.226533
F     2.924768   -0.591330    0.873399
F    -1.301155   -1.854169   -0.377515
F    -2.528100   -0.095040   -0.699597
F    -1.784593   -0.552251    1.290062
Cl    -0.487352    1.980503    0.064712
H    -0.042858    0.187772   -1.406517
H     2.255795    1.139294    0.129683
