14
isopropylnitrate[B3LYP/aug-cc-pVTZ]
N     1.373307   -0.063009    0.041264
O     1.396548    0.879733    0.795043
O     2.285464   -0.632107   -0.489189
O     0.119309   -0.621395   -0.286499
C    -1.052332    0.063916    0.267361
C    -1.394970    1.283353   -0.571030
C    -2.136583   -0.999878    0.268157
H    -0.806612    0.356435    1.286240
H    -0.581577    2.006220   -0.570003
H    -1.610830    0.992297   -1.599382
H    -2.278986    1.772046   -0.159761
H    -1.843059   -1.856641    0.872465
H    -3.052372   -0.580247    0.684532
H    -2.346969   -1.343252   -0.744705
