13
iso-propyl-nitrite[B3LYP/aug-cc-pVTZ]
H     1.230807   -0.798909    0.000000
C     0.140652   -0.856817    0.000000
H     0.007049   -2.562492    1.308766
H    -1.436380   -1.541527    1.309424
H     0.023820   -1.009617    2.153756
C    -0.346546   -1.531370    1.272020
H     0.007049   -2.562492   -1.308766
H     0.023820   -1.009617   -2.153756
H    -1.436380   -1.541527   -1.309424
C    -0.346546   -1.531370   -1.272020
O    -0.346546    0.512894    0.000000
O     0.328520    2.544021    0.000000
N     0.719868    1.441172    0.000000
