8
isothiocyanatoacetonitrile[B3LYP/aug-cc-pVTZ]
S     2.278497   -0.427178   -0.000076
N    -0.046708    1.072004   -0.000069
N    -2.433025   -1.423286   -0.000046
C    -1.477822    1.012116    0.000203
C    -2.013110   -0.354003    0.000063
C     0.927544    0.377873   -0.000052
H    -1.858915    1.539109   -0.876755
H    -1.858578    1.538797    0.877498
