18
isopropylcyclopropane[B3LYP/aug-cc-pVTZ]
C     0.467629    0.583634    0.000000
C    -0.031191    1.784928    0.753865
C    -0.031191    1.784928   -0.753865
C    -0.315789   -0.714728    0.000000
C    -0.031191   -1.532744    1.263884
C    -0.031191   -1.532744   -1.263884
H     1.544280    0.445861    0.000000
H    -0.986654    1.703209   -1.255077
H     0.685059    2.411395    1.266643
H     0.685059    2.411395   -1.266643
H    -0.986654    1.703209    1.255077
H    -0.623644   -2.449214    1.283788
H    -0.623644   -2.449214   -1.283788
H    -0.260425   -0.962286   -2.164879
H    -0.260425   -0.962286    2.164879
H     1.022414   -1.819061   -1.310538
H     1.022414   -1.819061    1.310538
H    -1.380233   -0.453598    0.000000
