22
leucine[B3LYP/aug-cc-pVTZ]
N     0.889792    1.733167   -0.084168
C     0.653062    0.324866    0.279326
C     1.942908   -0.495104    0.057054
O     1.987940   -1.690661    0.174653
O     3.015494    0.245946   -0.248211
H     2.687089    1.172239   -0.274368
C    -0.530559   -0.332551   -0.440004
C    -1.916908    0.221973   -0.078321
C    -2.973038   -0.350115   -1.029174
C    -2.296085   -0.059131    1.378824
H     0.489109    0.281675    1.357974
H    -0.369734   -0.225663   -1.518607
H    -0.496406   -1.403150   -0.233024
H    -1.902453    1.308771   -0.219438
H    -3.962107    0.053227   -0.807413
H    -2.741372   -0.116292   -2.069654
H    -3.029551   -1.437289   -0.938398
H    -3.288045    0.335699    1.602720
H    -2.313437   -1.133743    1.574081
H    -1.600962    0.393952    2.087128
H     0.485395    1.959508   -0.984328
H     0.510182    2.376995    0.594739
