16
m-cresol[B3LYP/aug-cc-pVTZ]
C     0.151273    1.784647    0.002216
C    -1.096568    1.176867   -0.008450
C     1.312680    1.021029    0.007796
C    -0.038671   -0.979205   -0.009708
C    -1.203017   -0.216446   -0.011775
C     1.211066   -0.366488    0.000942
C    -2.552960   -0.884863    0.009391
O     2.309364   -1.184166    0.000798
H     0.225667    2.863983    0.002825
H    -1.992065    1.784194   -0.016938
H     2.285648    1.497705    0.012651
H    -0.084931   -2.060188   -0.018605
H    -2.509721   -1.885386   -0.419767
H    -2.922457   -0.982907    1.033294
H    -3.290088   -0.306426   -0.547493
H     3.110211   -0.650896    0.005175
