12
m-dibromobenzene[B3LYP/aug-cc-pVTZ]
C     0.000000    0.000000    2.410928
C     0.000000    1.209040    1.726086
C     0.000000   -1.209040    1.726086
C     0.000000    0.000000   -0.375043
C     0.000000    1.191157    0.338567
C     0.000000   -1.191157    0.338567
Br     0.000000    2.842433   -0.622159
Br     0.000000   -2.842433   -0.622159
H     0.000000    0.000000    3.492446
H     0.000000    2.146877    2.260530
H     0.000000   -2.146877    2.260530
H     0.000000    0.000000   -1.453512
