12
m-dichlorobenzene[B3LYP/aug-cc-pVTZ]
C     0.000000    0.000000    2.071388
C     0.000000    1.208808    1.386957
C     0.000000   -1.208808    1.386957
C     0.000000    0.000000   -0.713068
C     0.000000    1.191420   -0.000840
C     0.000000   -1.191420   -0.000840
Cl     0.000000    2.703797   -0.881717
Cl     0.000000   -2.703797   -0.881717
H     0.000000    0.000000    3.152761
H     0.000000    2.149253    1.916981
H     0.000000   -2.149253    1.916981
H     0.000000    0.000000   -1.791679
