21
mesitylene[B3LYP/aug-cc-pVTZ]
C     1.195072    0.696188   -0.000003
C    -1.200452    0.686869   -0.000003
C     0.005380   -1.383057   -0.000003
C     0.000000    1.404022   -0.000002
C     1.215919   -0.702011   -0.000002
C    -1.215919   -0.702011   -0.000002
C    -0.014264    2.911190    0.000003
C     2.528296   -1.443242    0.000003
C    -2.514032   -1.467948    0.000003
H     2.133281    1.239569   -0.000006
H    -2.140139    1.227691   -0.000006
H     0.006857   -2.467260   -0.000006
H    -0.532837    3.302058   -0.878113
H    -0.532703    3.302052    0.878201
H     0.996060    3.318393   -0.000072
H     2.375782   -2.521810   -0.000072
H     3.126084   -1.189578   -0.878113
H     3.126012   -1.189692    0.878201
H    -2.593309   -2.112360    0.878201
H    -3.371843   -0.796583   -0.000072
H    -2.593247   -2.112479   -0.878113
