7
aminomethanimine[B3LYP/aug-cc-pVTZ]
C    -0.122869    0.390343   -0.000727
N     1.132778   -0.147911   -0.053004
N    -1.171312   -0.329822    0.010738
H    -0.118022    1.483848   -0.004688
H     1.919698    0.417616    0.206986
H     1.214009   -1.140910    0.095135
H    -2.008734    0.241521    0.002787
