13
methacrylamide[B3LYP/aug-cc-pVTZ]
N    -1.672206    0.735432    0.281233
H    -2.635471    0.448331    0.316740
H    -1.408035    1.582616    0.748896
C     1.669363   -0.902956    0.274192
H     1.491299   -1.339113    1.259311
H     1.537891   -1.708491   -0.448267
H     2.695543   -0.542835    0.230507
C     1.067908    1.453999   -0.283116
H     0.354906    2.225169   -0.540582
H     2.112388    1.736805   -0.297815
C    -0.747453   -0.216273   -0.042278
O    -1.070845   -1.348227   -0.361502
C     0.697462    0.204449   -0.006366
