11
methyl-2-chloroacetate[B3LYP/aug-cc-pVTZ]
C     0.000000    0.466246    0.000000
C    -0.565797    2.760319    0.000000
C    -0.633002   -0.915121    0.000000
O     1.170077    0.724321    0.000000
O    -0.987371    1.382600    0.000000
Cl     0.569257   -2.233268    0.000000
H     0.026696    2.973494    0.887304
H    -1.480710    3.343662    0.000000
H     0.026696    2.973494   -0.887304
H    -1.259449   -1.024561   -0.881342
H    -1.259449   -1.024561    0.881342
