20
methyl-4-nitrobenzoate[B3LYP/aug-cc-pVTZ]
C    -1.286273    0.390991    0.000000
C     1.112125    0.088865    0.000000
C    -1.467836   -0.981974    0.000000
C     0.942643   -1.286930    0.000000
C     0.000000    0.932795    0.000000
C    -0.346334   -1.799458    0.000000
C     0.128280    2.421778    0.000000
C     1.617644    4.250574    0.000000
N    -0.530904   -3.266994    0.000000
O    -0.811383    3.179716    0.000000
O    -1.675584   -3.692985    0.000000
O     0.472906   -3.963304    0.000000
O     1.410358    2.826665    0.000000
H    -2.134031    1.060043    0.000000
H     2.105499    0.509823    0.000000
H    -2.451989   -1.422851    0.000000
H     1.785123   -1.960132    0.000000
H     2.694123    4.387094    0.000000
H     1.172868    4.697195    0.886917
H     1.172868    4.697195   -0.886917
