10
methoxyacetonitrile[B3LYP/aug-cc-pVTZ]
H     2.599637   -1.376904    0.000000
H     2.446132    0.154878    0.891870
H     2.446132    0.154878   -0.891870
C     2.130026   -0.397042    0.000000
O     0.728282   -0.616731    0.000000
H     0.230030    1.194926   -0.885833
H     0.230030    1.194926    0.885833
C     0.000000    0.588434    0.000000
N    -2.565567    0.100471    0.000000
C    -1.433235    0.293249    0.000000
