23
methylhexanoate[B3LYP/aug-cc-pVTZ]
C     1.488939    1.017839    0.000000
C    -3.766271   -2.671937    0.000000
C     3.138511    2.711319    0.000000
C     0.000000    0.760101    0.000000
C    -2.256886   -2.436231    0.000000
C    -0.365395   -0.720041    0.000000
C    -1.876026   -0.955711    0.000000
O     2.352499    0.176679    0.000000
O     1.749338    2.343823    0.000000
H    -4.235468   -2.228565    0.880789
H    -4.235468   -2.228565   -0.880789
H    -4.003230   -3.736674    0.000000
H     3.153724    3.796785    0.000000
H     3.636516    2.322018   -0.886207
H     3.636516    2.322018    0.886207
H    -0.422849    1.270771   -0.869472
H    -0.422849    1.270771    0.869472
H    -1.811861   -2.921057   -0.873831
H    -1.811861   -2.921057    0.873831
H     0.084585   -1.201251    0.871034
H     0.084585   -1.201251   -0.871034
H    -2.322130   -0.469995   -0.874710
H    -2.322130   -0.469995    0.874710
