11
methyl-N-cyanocarbamodithioate[B3LYP/aug-cc-pVTZ]
S    -0.076909    1.429668   -0.296124
S    -2.320711   -0.430992    0.003087
N     0.165442   -1.221447    0.348448
N     2.533503   -1.512399   -0.373747
C    -0.698146   -0.166640    0.047913
C     1.601582    1.576805    0.424261
C     1.436783   -1.360875   -0.047466
H     2.364171    1.136291   -0.207540
H     1.754503    2.651749    0.498792
H     1.630211    1.146821    1.421550
H    -0.320892   -2.072484    0.604643
