13
methyl-N-methylcarbamate[B3LYP/aug-cc-pVTZ]
C     0.017458    0.114976   -0.000014
C    -2.442157   -0.010060    0.000035
C     2.370388   -0.058037    0.000016
N    -1.126195   -0.614338   -0.000060
O     0.091274    1.325205   -0.000014
O     1.096157   -0.714172    0.000010
H    -2.316092    1.068892   -0.000449
H    -3.008671   -0.296928    0.887756
H    -3.009081   -0.297691   -0.887170
H     2.483823    0.563324    0.886629
H     2.483850    0.563286   -0.886620
H     3.107408   -0.855675    0.000044
H    -1.031457   -1.614379    0.000035
