7
CH3N3[B3LYP/aug-cc-pVTZ]
N     0.000000    0.723823    0.000000
N    -0.513023    1.731413    0.000000
N     0.675733   -0.298488    0.000000
C    -0.069885   -1.567760    0.000000
H     0.668896   -2.362474    0.000000
H    -0.694278   -1.664099    0.890793
H    -0.694278   -1.664099   -0.890793
