7
CH3OOH[B3LYP/aug-cc-pVTZ]
C     1.130346   -0.225128    0.025065
O    -0.015267    0.606026   -0.027255
O    -1.167167   -0.278825   -0.095051
H     1.971335    0.468788    0.022108
H     1.147766   -0.826787    0.937012
H     1.184789   -0.873635   -0.851239
H    -1.626495   -0.035207    0.720173
