18
methylbenzoate[B3LYP/aug-cc-pVTZ]
C    -1.629703    2.519691    0.000000
C    -0.245437    2.661629    0.000000
C    -2.199329    1.250750    0.000000
C     0.567055    1.537570    0.000000
C    -1.389364    0.123082    0.000000
C     0.000000    0.261893    0.000000
C     0.918942   -0.909822    0.000000
C     1.082579   -3.263273    0.000000
O     2.125324   -0.833326    0.000000
O     0.258943   -2.087035    0.000000
H    -2.263404    3.396510    0.000000
H     0.198432    3.647794    0.000000
H    -3.275165    1.139998    0.000000
H     1.643793    1.627324    0.000000
H    -1.827393   -0.863439    0.000000
H     1.713986   -3.286294    0.886283
H     1.713986   -3.286294   -0.886283
H     0.393171   -4.101840    0.000000
