10
methylcarbamodithioic-acid[B3LYP/aug-cc-pVTZ]
C     1.860208   -1.388426    0.000000
N     1.300486   -0.046394    0.000000
C     0.000000    0.288733    0.000000
S    -0.535187    1.859700    0.000000
S    -1.092712   -1.125087    0.000000
H     1.555773   -1.946049    0.887371
H     1.555773   -1.946049   -0.887371
H     2.943735   -1.305923    0.000000
H     1.930390    0.739868    0.000000
H    -2.203937   -0.372747    0.000000
