20
methylpentanoate[B3LYP/aug-cc-pVTZ]
C    -1.162065   -0.316600    0.000000
C     3.891987    0.293233    0.000000
C    -3.521231   -0.471592    0.000000
C     0.000000    0.649193    0.000000
C     2.521478    0.967777    0.000000
C     1.364398   -0.031139    0.000000
O    -1.082593   -1.519471    0.000000
O    -2.339681    0.346164    0.000000
H     4.019803   -0.339306    0.880577
H     4.019803   -0.339306   -0.880577
H     4.697325    1.028826    0.000000
H    -3.548612   -1.103036    0.886262
H    -3.548612   -1.103036   -0.886262
H    -4.356547    0.221758    0.000000
H    -0.114752    1.302305   -0.869458
H    -0.114752    1.302305    0.869458
H     2.437814    1.621046    0.874090
H     2.437814    1.621046   -0.874090
H     1.440757   -0.685686    0.871083
H     1.440757   -0.685686   -0.871083
