7
CH3NH2[B3LYP/aug-cc-pVTZ]
C    -0.048962    0.706625    0.000000
N    -0.048962   -0.757428    0.000000
H     0.945026    1.171177    0.000000
H    -0.587216    1.065175    0.877567
H    -0.587216    1.065175   -0.877567
H     0.432957   -1.119643    0.812861
H     0.432957   -1.119643   -0.812861
