8
cyano-methylperoxide[B3LYP/aug-cc-pVTZ]
O     0.168175    0.731979   -0.169936
O    -0.875385    0.011600    0.633516
N     2.292619   -0.465281   -0.025231
C     1.271007    0.074684   -0.071494
C    -1.910219   -0.317169   -0.281016
H    -2.328484    0.577593   -0.741855
H    -1.568489   -1.027299   -1.034576
H    -2.658412   -0.787050    0.359468
