18
methyl-cyclopentane[B3LYP/aug-cc-pVTZ]
C    -1.527992   -0.778219   -0.025802
C    -1.527998    0.778215   -0.025762
C    -0.054746   -1.195602    0.153522
C    -0.054742    1.195610    0.153491
C     0.759977   -0.000005   -0.361654
C     2.225909   -0.000001    0.053568
H    -2.163452   -1.189245    0.758393
H    -1.917173   -1.155891   -0.972214
H    -1.917255    1.155933   -0.972124
H    -2.163406    1.189187    0.758504
H     0.170715   -1.346139    1.213831
H     0.187200   -2.127106   -0.360157
H     0.187182    2.127090   -0.360241
H     0.170755    1.346201    1.213784
H     0.706863   -0.000021   -1.457058
H     2.748064    0.880936   -0.324665
H     2.320004    0.000014    1.142416
H     2.748063   -0.880949   -0.324642
