13
methylethylsulfoxide[B3LYP/aug-cc-pVTZ]
C    -2.236697    0.080677   -0.129130
H    -2.322637   -0.067127   -1.206237
H    -3.133658   -0.332836    0.333139
H    -2.233285    1.152436    0.067774
C    -1.000479   -0.609481    0.429352
H    -1.046983   -1.689171    0.288441
H    -0.841528   -0.414738    1.490353
C     0.730937    1.540292    0.218013
H    -0.093206    2.158259   -0.133594
S     0.566260   -0.160011   -0.432652
O     1.651899   -0.967089    0.229435
H     1.671903    1.924648   -0.167830
H     0.761473    1.496490    1.305499
