24
methyl-cyclohexanecarboxylate[B3LYP/aug-cc-pVTZ]
C    -1.111854   -0.407602    0.125096
C     2.519955    0.359470   -0.688408
C     1.969676   -1.052974   -0.470654
C     1.411901    1.411583   -0.589259
C     1.194356   -1.168658    0.847170
C     0.666104    1.312877    0.744533
C     0.099900   -0.101797    0.994429
C    -3.281670    0.319162   -0.471198
O    -1.250170   -1.370670   -0.588255
O    -2.072170    0.532062    0.273850
H     3.284420    0.574297    0.066511
H     3.016327    0.424143   -1.659020
H     1.308119   -1.318004   -1.297782
H     2.784895   -1.779646   -0.477318
H     1.828011    2.414978   -0.702103
H     0.706946    1.275720   -1.416225
H     0.756983   -2.162764    0.937526
H     1.888488   -1.047022    1.684150
H     1.361886    1.538168    1.557947
H    -0.133635    2.050051    0.799485
H    -0.284837   -0.125874    2.018897
H    -3.073608    0.295602   -1.539403
H    -3.927090    1.157271   -0.226901
H    -3.748380   -0.620419   -0.180785
