21
methylcyclohexane[B3LYP/aug-cc-pVTZ]
C    -0.739782   -1.773761    0.000000
C    -0.089048   -1.206811    1.264899
C    -0.089048   -1.206811   -1.264899
C    -0.089048    0.324852    1.260545
C    -0.089048    0.324852   -1.260545
C     0.566508    0.906527    0.000000
C     0.533702    2.434333    0.000000
H    -0.680166   -2.864513    0.000000
H    -1.805477   -1.520961    0.000000
H    -0.602476   -1.579676    2.154131
H     0.943314   -1.566555    1.330389
H     0.943314   -1.566555   -1.330389
H    -0.602476   -1.579676   -2.154131
H    -1.122408    0.686328    1.318579
H     0.419978    0.704095    2.150588
H     0.419978    0.704095   -2.150588
H    -1.122408    0.686328   -1.318579
H     1.617471    0.591208    0.000000
H     1.030791    2.842574    0.882126
H     1.030791    2.842574   -0.882126
H    -0.495635    2.801645    0.000000
