13
methylene-cyclobutane[B3LYP/aug-cc-pVTZ]
C     0.233750   -0.388334    1.091648
C     0.233750   -0.388334   -1.091648
C    -0.103047    0.613325    0.000000
C     0.233750   -1.499323    0.000000
C    -0.627950    1.827559    0.000000
H    -0.477778   -0.485850    1.911239
H    -0.477778   -0.485850   -1.911239
H     1.227026   -0.224070    1.515020
H     1.227026   -0.224070   -1.515020
H    -0.853925    2.345913    0.923515
H    -0.853925    2.345913   -0.923515
H     1.077726   -2.185964    0.000000
H    -0.689886   -2.075382    0.000000
