12
methylester-2-propenoicacid[B3LYP/aug-cc-pVTZ]
H     2.527150   -1.893203    0.000000
H     2.462309   -0.342027    0.886291
H     2.462309   -0.342027   -0.886291
C     2.133452   -0.881675    0.000000
O     0.704179   -1.022573    0.000000
O     0.512478    1.224123    0.000000
C     0.000000    0.130493    0.000000
H    -1.752520   -1.187537    0.000000
C    -1.456302   -0.147598    0.000000
H    -3.407145    0.640284    0.000000
H    -2.020476    1.871183    0.000000
C    -2.344631    0.838935    0.000000
