12
3-isocyanatopropanoylchloride[B3LYP/aug-cc-pVTZ]
Cl    -3.060401   -0.655123   -0.000036
O    -1.695936    1.586291    0.000019
O     4.467584   -0.178785   -0.000057
N     2.105957   -0.328874    0.000063
C    -0.315239   -0.391161    0.000014
C     0.924008    0.501299    0.000045
C    -1.585387    0.409377    0.000004
C     3.297525   -0.188848   -0.000003
H    -0.325259   -1.048562    0.871003
H    -0.325232   -1.048540   -0.870992
H     0.918478    1.146124    0.879487
H     0.918511    1.146144   -0.879383
