11
N-methylaminoformamide[B3LYP/aug-cc-pVTZ]
C    -1.389634    0.299814   -0.198766
C     1.952053   -0.334792   -0.368307
N    -0.126016    0.752446    0.062428
N     0.873407   -0.070871    0.575294
O    -1.831251   -0.798313    0.032910
H    -1.989676    1.107143   -0.659469
H     2.420897    0.574948   -0.769208
H     1.565322   -0.922739   -1.199271
H     2.715072   -0.922090    0.141351
H     0.119098    1.672856   -0.284035
H     1.213038    0.315233    1.445736
