14
N-acetylacetamide[B3LYP/aug-cc-pVTZ]
C     0.000000    1.265036   -0.119107
C     0.000000   -1.265036   -0.119107
C     0.000000    2.401004    0.887119
C     0.000000   -2.401004    0.887119
N     0.000000    0.000000    0.490686
O     0.000000    1.434626   -1.309734
O     0.000000   -1.434626   -1.309734
H     0.000000    3.342860    0.347946
H    -0.882484    2.352586    1.527823
H     0.882484    2.352586    1.527823
H    -0.882484   -2.352586    1.527823
H     0.882484   -2.352586    1.527823
H     0.000000   -3.342860    0.347946
H     0.000000    0.000000    1.497619
