10
C2H4N2O2[B3LYP/aug-cc-pVTZ]
O     0.398686   -0.658181    0.432310
O     2.110858    0.540150   -0.435213
N    -0.324934    0.558558    0.529684
N    -2.184383   -0.564932   -0.359925
C     1.635791   -0.499882   -0.069258
C    -1.596806    0.501735   -0.024181
H     0.269573    1.312628    0.194878
H    -3.129950   -0.371180   -0.673543
H     2.131567   -1.475260   -0.070979
H    -2.016233    1.511565   -0.054807
