16
N-E-prop-1-enylacetamide[B3LYP/aug-cc-pVTZ]
C    -1.936874   -0.817158    0.000000
C    -0.619074   -0.628886    0.000000
C     1.363850    0.795633    0.000000
C    -2.590379   -2.163352    0.000000
C     1.836552    2.234079    0.000000
N     0.000000    0.623665    0.000000
O     2.140869   -0.141131    0.000000
H    -2.595791    0.047327    0.000000
H     0.088707   -1.445676    0.000000
H    -3.229378   -2.296210    0.877032
H    -3.229378   -2.296210   -0.877032
H    -1.850635   -2.963831    0.000000
H     2.460883    2.395108   -0.878171
H     2.460883    2.395108    0.878171
H     1.027080    2.963093    0.000000
H    -0.583780    1.442786    0.000000
