8
diethynylamine[B3LYP/aug-cc-pVTZ]
N     0.000000    0.712570   -0.000004
C     1.187127    0.077814   -0.000007
C    -1.187127    0.077815   -0.000007
C     2.251031   -0.475403    0.000008
C    -2.251031   -0.475403    0.000009
H     0.000000    1.720650    0.000024
H     3.189310   -0.968793   -0.000008
H    -3.189310   -0.968793   -0.000007
