11
C2H5NOS2[B3LYP/aug-cc-pVTZ]
S    -0.977841    0.897750    0.426091
S    -2.081995   -0.635586   -0.451951
O     1.307860   -0.949315    1.030107
N     0.582338    0.797816   -0.241341
C     1.521372   -0.149599    0.148699
C     2.812887   -0.107552   -0.640961
H    -1.741791   -1.618901    0.408674
H     0.761070    1.334091   -1.076406
H     2.715102   -0.758963   -1.511499
H     3.614677   -0.492310   -0.016893
H     3.063516    0.894181   -0.987999
