23
N-methyl-N-2-2-2-trifluoroethylaniline[B3LYP/aug-cc-pVTZ]
C    -3.674067   -0.853951   -0.083418
C    -2.544884   -1.650937    0.067775
C    -3.509148    0.522321   -0.154373
C    -1.279010   -1.090719    0.146626
C    -2.248330    1.098967   -0.065846
C    -1.102333    0.302544    0.091353
C     0.314133    2.318038    0.012392
C     1.235426    0.205711    0.866884
C     2.316851   -0.367967   -0.044102
N     0.170829    0.879498    0.166684
F     3.284492   -0.950410    0.698778
F     1.843375   -1.300588   -0.890331
F     2.908950    0.584737   -0.794752
H    -4.657463   -1.297035   -0.151204
H    -2.643137   -2.727701    0.109315
H    -4.370757    1.166188   -0.272823
H    -0.425739   -1.747886    0.213334
H    -2.166729    2.173555   -0.110469
H    -0.155118    2.650083   -0.912697
H     1.369780    2.566254   -0.050624
H    -0.127388    2.879150    0.846120
H     1.743693    0.891876    1.548447
H     0.853873   -0.618659    1.466816
