9
C3H3NO3[B3LYP/aug-cc-pVTZ]
O     0.003809    1.878896   -0.058549
O    -1.325094   -1.341270   -0.193926
N    -1.242362    0.008952    0.182819
C    -0.039394    0.667675    0.014547
C     1.144130   -0.169619    0.016092
C     2.171402   -0.787529    0.007182
H    -1.418256   -1.824659    0.635941
H    -2.054044    0.531652   -0.119875
H     3.082283   -1.333824   -0.002916
