7
N-hydroxyformamide[B3LYP/aug-cc-pVTZ]
C    -0.776157    0.482170    0.010862
N     0.561163    0.638019   -0.078048
O    -1.303837   -0.617381    0.001319
O     1.345896   -0.512290    0.011708
H    -1.318051    1.436615    0.052353
H     1.043410    1.455182    0.258679
H     0.666967   -1.213576    0.065911
