8
N-ethynylcarbamoylchloride[B3LYP/aug-cc-pVTZ]
Cl     2.020286   -0.360915    0.000049
O     0.203450    1.555974   -0.000169
N    -0.574181   -0.605015    0.000072
C     0.376440    0.384407   -0.000039
C    -1.897702   -0.346943    0.000026
C    -3.075438   -0.133700   -0.000002
H    -0.254865   -1.560965    0.000162
H    -4.118136    0.061245   -0.000060
