14
N-methylsulfinamoylmethanamine[B3LYP/aug-cc-pVTZ]
C     2.348792   -0.536780    0.248659
C    -2.054949   -0.747002    0.633612
N     0.953152   -0.827439   -0.095931
N    -1.433378   -0.277244   -0.614256
O     0.101328    1.411281    0.730744
S     0.030842    0.587441   -0.500901
H     2.820782   -1.466819    0.562554
H     2.364292    0.153252    1.088342
H     2.932278   -0.107281   -0.573544
H    -2.298120    0.067754    1.317861
H    -1.373670   -1.430882    1.131354
H    -2.964289   -1.286453    0.373636
H     0.877511   -1.467415   -0.879936
H    -2.064357    0.284026   -1.174130
