17
N-methylaniline[B3LYP/aug-cc-pVTZ]
C     2.308280    0.333913    0.032715
C     1.874791   -0.990670    0.036977
C     1.359701    1.346306   -0.009499
C     0.525138   -1.293489   -0.004025
C    -0.000206    1.056554   -0.046565
C    -0.440752   -0.273922   -0.049701
C    -2.835641    0.363095    0.089889
N    -1.783597   -0.606016   -0.128315
H     3.363058    0.567419    0.063881
H     2.596525   -1.796291    0.072123
H     1.674892    2.381687   -0.010024
H     0.202937   -2.328068   -0.007472
H    -0.713687    1.866797   -0.075478
H    -2.839553    1.117185   -0.699380
H    -2.751251    0.880801    1.053410
H    -3.794605   -0.149894    0.057667
H    -2.001002   -1.548246    0.144734
