8
N-methylmethanimine[B3LYP/aug-cc-pVTZ]
C    -1.074952   -0.423350    0.000000
N     0.000000    0.548631    0.000000
C     1.187443    0.128587    0.000000
H    -0.726044   -1.464229    0.000000
H    -1.702940   -0.256326    0.876539
H    -1.702940   -0.256326   -0.876539
H     1.449451   -0.937256    0.000000
H     2.007530    0.842294    0.000000
