17
N-methylpyrimidine-2-carboxamide[B3LYP/aug-cc-pVTZ]
C    -2.911807   -0.353161    0.000000
C    -1.970075   -1.370420    0.000028
C    -2.420063    0.945020   -0.000029
C    -0.295388    0.168403   -0.000001
C     1.202333    0.467839    0.000009
C     3.415957   -0.609641   -0.000010
N    -0.663500   -1.117055    0.000026
N    -1.117120    1.213429   -0.000028
N     1.969122   -0.648818   -0.000052
O     1.629250    1.606620    0.000055
H    -3.971769   -0.560591    0.000002
H    -2.264814   -2.413448    0.000052
H    -3.089232    1.798175   -0.000054
H     3.820894   -1.101243   -0.886355
H     3.820882   -1.099999    0.887039
H     3.726013    0.431675   -0.000714
H     1.478770   -1.528660   -0.000016
