13
N-methylacetamidine[B3LYP/aug-cc-pVTZ]
C     0.504007    0.162021   -0.000522
C     1.815083   -0.581550    0.000816
C    -1.959986   -0.145515    0.001321
N     0.504425    1.442302    0.000085
N    -0.605061   -0.647080   -0.003604
H     1.900600   -1.219398    0.883090
H     1.902657   -1.218859   -0.881594
H     2.630056    0.134963    0.002108
H    -2.164863    0.459162    0.889530
H    -2.648126   -0.987714   -0.000986
H    -2.167537    0.465376   -0.881811
H    -0.436074    1.830537   -0.000616
H    -0.466885   -1.640362    0.005221
