17
N-methylpyrimidine-5-sulfinamide[B3LYP/aug-cc-pVTZ]
C    -1.066927    0.993447    0.503517
C    -1.369945   -1.059353   -0.651102
C    -3.086115   -0.027909    0.398756
C    -0.518719   -0.048949   -0.236276
C     3.264554   -0.589277    0.915395
N    -2.356726    1.004528    0.828796
N    -2.664799   -1.059267   -0.329369
N     1.810425   -0.382266    0.877742
O     1.609131    1.384777   -0.978583
S     1.227894   -0.030720   -0.731013
H    -0.454317    1.827531    0.822442
H    -1.012893   -1.886063   -1.256520
H    -4.135818   -0.021604    0.667155
H     3.754433    0.313715    0.557523
H     3.609015   -1.442093    0.321297
H     3.556910   -0.741479    1.953119
H     1.303932   -1.185425    1.237919
