12
N-methylmethanesulfinamide[B3LYP/aug-cc-pVTZ]
C    -2.176225   -0.108634    0.025106
C     1.750470   -0.864926    0.195527
N    -0.860662   -0.714324    0.273353
O     0.496434    1.481896    0.368384
S     0.435590    0.228882   -0.434302
H    -2.186081    0.887800    0.460796
H    -2.927918   -0.708978    0.535442
H    -2.441606   -0.034928   -1.035315
H     1.646109   -0.917873    1.276493
H     2.694683   -0.403665   -0.084828
H     1.666868   -1.848965   -0.264591
H    -0.813806   -1.649042   -0.123504
