14
n-propylformate[B3LYP/aug-cc-pVTZ]
C    -1.071395   -1.776836    0.000000
C     1.414442    2.421868    0.000000
C     1.409577    0.893657    0.000000
C     0.000000    0.338803    0.000000
O    -2.169335   -1.290400    0.000000
O     0.086608   -1.109139    0.000000
H    -0.866386   -2.854791    0.000000
H     0.909790    2.821701    0.881287
H     2.434143    2.805918    0.000000
H     0.909790    2.821701   -0.881287
H     1.940343    0.515991    0.876316
H     1.940343    0.515991   -0.876316
H    -0.560976    0.652422    0.881239
H    -0.560976    0.652422   -0.881239
