12
N-N-dimethylthioformamide[B3LYP/aug-cc-pVTZ]
C     0.000000    0.771893    0.000000
S     1.640420    0.979773    0.000000
N    -0.700922   -0.369480    0.000000
C    -0.070945   -1.678921    0.000000
C    -2.154440   -0.362728    0.000000
H    -0.648724    1.645722    0.000000
H    -0.374521   -2.239525    0.886803
H    -0.374521   -2.239525   -0.886803
H     1.006974   -1.550438    0.000000
H    -2.539090   -0.874548   -0.885289
H    -2.539090   -0.874548    0.885289
H    -2.518989    0.661390    0.000000
