25
N-N-4-trimethylbenzamide[B3LYP/aug-cc-pVTZ]
C    -0.824709    1.228044    0.516573
C    -0.551689   -0.837659   -0.670034
C    -2.192547    1.016290    0.567183
C    -1.928178   -1.033187   -0.636809
C     0.016971    0.292751   -0.088553
C    -2.771189   -0.118200   -0.009775
C     1.480040    0.615826   -0.196992
C    -4.260063   -0.333800    0.047428
C     3.800000   -0.087883   -0.163135
C     2.129735   -1.553398    0.876092
N     2.392421   -0.372582    0.069758
O     1.827343    1.734039   -0.557225
H    -0.393860    2.126909    0.935086
H     0.076121   -1.560776   -1.173451
H    -2.825569    1.749761    1.051454
H    -2.351256   -1.910030   -1.110565
H    -4.560652   -1.194770   -0.547754
H    -4.593447   -0.504188    1.073579
H    -4.800270    0.538795   -0.323928
H     4.294841   -0.991603   -0.522094
H     4.298732    0.238192    0.755175
H     3.890077    0.701076   -0.901854
H     2.743352   -1.528530    1.781764
H     2.377510   -2.465691    0.327084
H     1.088513   -1.596087    1.173131
