13
2-dichloroamino-propanoicacid[B3LYP/aug-cc-pVTZ]
Cl     0.728531    1.497292    0.772640
Cl     2.223389   -0.562465   -0.591632
O    -2.668641   -0.240390    0.519523
O    -1.881708    0.532517   -1.435981
N     0.638389    0.232441   -0.474123
C    -0.389595   -0.778712   -0.100354
C    -1.770143   -0.126666   -0.269201
C    -0.253722   -1.474534    1.243293
H    -2.779254    0.895548   -1.477125
H    -0.305243   -1.508256   -0.910817
H     0.726260   -1.938756    1.327217
H    -0.395120   -0.777206    2.064971
H    -1.014466   -2.248024    1.326727
