11
3-difluoroaminopropene[B3LYP/aug-cc-pVTZ]
F    -1.941746   -0.828965   -0.048656
F    -1.207342    1.234561    0.002398
N    -0.837230   -0.049645   -0.459202
C     0.253975   -0.468738    0.449582
C     1.490150    0.334470    0.186438
C     2.628245   -0.194799   -0.239489
H     0.410259   -1.522526    0.224676
H    -0.096603   -0.362385    1.478991
H     1.421730    1.396780    0.385841
H     2.723117   -1.253412   -0.447875
H     3.509677    0.413089   -0.390093
