15
3-difluoroamino-4-aminopyridine[B3LYP/aug-cc-pVTZ]
F    -2.192510   -0.268440    1.108615
F    -2.196021   -0.431782   -1.071868
N    -1.580972    0.316470   -0.035136
N     1.505260   -1.737413    0.024215
N     0.347175    2.296354    0.002544
C    -0.202650   -0.061410   -0.009063
C     0.727919    0.992051   -0.013556
C     0.228543   -1.384447    0.013005
C     2.079236    0.604782   -0.004927
C     2.400219   -0.735610    0.013200
H     1.025447    3.014652   -0.169637
H    -0.622485    2.526037   -0.124140
H    -0.507894   -2.178420    0.017074
H     2.859819    1.353746   -0.007846
H     3.442048   -1.034086    0.020506
