19
N-N-N'-trimethylacetamidine[B3LYP/aug-cc-pVTZ]
C    -0.187905    0.651224    0.062869
C     0.516351    1.963676    0.319752
C    -2.243533   -0.480238   -0.361032
C     0.408532   -1.679218    0.623345
C     2.013376   -0.300958   -0.547808
N    -1.463119    0.665717    0.054242
N     0.620090   -0.477546   -0.174016
H    -0.225648    2.696922    0.619317
H     1.012868    2.331307   -0.580297
H     1.278208    1.872960    1.096432
H    -3.133483   -0.114305   -0.874912
H    -2.599264   -1.057251    0.498552
H    -1.707657   -1.161888   -1.031043
H     1.084452   -1.699902    1.489156
H     0.600243   -2.572869    0.025300
H    -0.607803   -1.727617    0.994091
H     2.367240   -1.220180   -1.017111
H     2.668083   -0.091653    0.309584
H     2.123038    0.500365   -1.273403
