20
naphthalen-1-amine[B3LYP/aug-cc-pVTZ]
C    -2.745482   -0.250488    0.015139
C    -2.350376    1.101274   -0.020876
C     1.894620   -1.629753   -0.016536
C    -1.798435   -1.240778    0.025645
C    -1.018277    1.430836   -0.033362
C     0.565283   -1.959620    0.002317
C     2.304363   -0.285408   -0.011578
C    -0.414684   -0.938347    0.010052
C    -0.013885    0.433355   -0.006243
C     1.383991    0.743412   -0.000677
N     1.805666    2.071855   -0.042792
H    -3.797274   -0.503107    0.026539
H    -3.099801    1.880731   -0.046991
H     2.647310   -2.406938   -0.024601
H    -2.097908   -2.281072    0.043095
H    -0.742879    2.474995   -0.088131
H     0.249676   -2.994190    0.010295
H     3.361776   -0.050767   -0.011365
H     2.778199    2.210429    0.179331
H     1.218530    2.740032    0.428091
