14
nitrobenzene[B3LYP/aug-cc-pVTZ]
C     0.000000    0.000000   -2.509568
C     0.000000    1.206952   -1.817042
C     0.000000   -1.206952   -1.817042
C     0.000000    1.215022   -0.429244
C     0.000000   -1.215022   -0.429244
C     0.000000    0.000000    0.241376
N     0.000000    0.000000    1.718131
O     0.000000    1.082390    2.285939
O     0.000000   -1.082390    2.285939
H     0.000000    0.000000   -3.590995
H     0.000000    2.143267   -2.357131
H     0.000000   -2.143267   -2.357131
H     0.000000    2.134833    0.133951
H     0.000000   -2.134833    0.133951
