18
naphthalene[B3LYP/aug-cc-pVTZ]
C     0.000000    0.000000    0.713923
C     0.000000    1.240542    1.396864
C     0.000000   -1.240542    1.396864
C     0.000000    2.423616    0.705779
C     0.000000    2.423616   -0.705779
C     0.000000    1.240542   -1.396864
C     0.000000   -2.423616    0.705779
C     0.000000   -2.423616   -0.705779
C     0.000000   -1.240542   -1.396864
C     0.000000    0.000000   -0.713923
H     0.000000   -3.364265    1.240162
H     0.000000   -3.364265   -1.240162
H     0.000000    3.364265   -1.240162
H     0.000000    3.364265    1.240162
H     0.000000    1.239118   -2.479712
H     0.000000   -1.239118    2.479712
H     0.000000   -1.239118   -2.479712
H     0.000000    1.239118    2.479712
