13
2-formamidoacetamide[B3LYP/aug-cc-pVTZ]
C     2.188329   -0.578455    0.000000
C    -1.460704    0.073620    0.000000
C     0.000000    0.510660    0.000000
N    -2.360917    1.087263    0.000000
N     0.840666   -0.658435    0.000000
O     2.817916    0.462897    0.000000
O    -1.784599   -1.100738    0.000000
H     2.671946   -1.568981    0.000000
H     0.198935    1.134237    0.876265
H     0.198935    1.134237   -0.876265
H    -3.341011    0.863104    0.000000
H    -2.082734    2.051773    0.000000
H     0.363396   -1.548392    0.000000
