12
o-difluorobenzene[B3LYP/aug-cc-pVTZ]
C     0.000000    0.694295   -0.532279
C     0.000000    1.395728    0.658951
C     0.000000    0.694955    1.860549
C     0.000000   -0.694955    1.860549
C     0.000000   -1.395728    0.658951
C     0.000000   -0.694295   -0.532279
F     0.000000   -1.349838   -1.705237
F     0.000000    1.349838   -1.705237
H     0.000000    2.476041    0.629411
H     0.000000    1.238774    2.794390
H     0.000000   -1.238774    2.794390
H     0.000000   -2.476041    0.629411
