16
o-cresol[B3LYP/aug-cc-pVTZ]
C     1.183630   -1.657236    0.000000
C     1.978197   -0.519415    0.000000
C    -0.201692   -1.524488    0.000000
C     1.385481    0.737927    0.000000
C    -0.822901   -0.278622    0.000000
C     0.000000    0.854617    0.000000
C    -2.318300   -0.130060    0.000000
O    -0.625320    2.075643    0.000000
H     1.634666   -2.639701    0.000000
H     3.056498   -0.602769    0.000000
H    -0.822640   -2.411682    0.000000
H     1.999453    1.631427    0.000000
H    -2.661652    0.425255    0.874779
H    -2.661652    0.425255   -0.874779
H    -2.803146   -1.104999    0.000000
H     0.034538    2.775735    0.000000
