22
1-2-3-3a-4-5-6-6a-octahydropentalene[B3LYP/aug-cc-pVTZ]
C     0.107535   -2.168802    0.000000
C    -0.072713   -1.229601    1.197282
C    -0.072713   -1.229601   -1.197282
C     0.643552    0.075590    0.785834
C    -0.072713    1.375568    1.203592
C    -0.955423    1.735879    0.000000
C    -0.072713    1.375568   -1.203592
C     0.643552    0.075590   -0.785834
H    -0.591384   -3.006411    0.000000
H    -0.635977    1.262705   -2.131346
H    -0.635977    1.262705    2.131346
H     0.312527   -1.639812   -2.131505
H    -1.275571    2.778231    0.000000
H     0.312527   -1.639812    2.131505
H     1.117840   -2.587719    0.000000
H    -1.860267    1.122424    0.000000
H     1.664077    0.059193   -1.169844
H     0.658197    2.171586   -1.366919
H     1.664077    0.059193    1.169844
H    -1.139228   -1.037507    1.348434
H     0.658197    2.171586    1.366919
H    -1.139228   -1.037507   -1.348434
