7
O-ethynylhydroxylamine[B3LYP/aug-cc-pVTZ]
O    -0.485466    0.609325    0.000033
N    -1.490658   -0.472251   -0.000012
C     0.723672    0.132472    0.000000
C     1.867234   -0.225589   -0.000026
H    -2.052385   -0.232984   -0.814329
H    -2.052359   -0.233078    0.814350
H     2.877638   -0.544080   -0.000049
