22
oct-1-yne[B3LYP/aug-cc-pVTZ]
C    -3.346877   -3.031775    0.000000
C    -2.834619   -1.946702    0.000000
C     3.714400    1.932692    0.000000
C    -2.190041   -0.639220    0.000000
C     2.187929    1.995002    0.000000
C    -0.653223   -0.713523    0.000000
C     1.528109    0.615773    0.000000
C     0.000000    0.667374    0.000000
H    -3.805160   -3.988782    0.000000
H     4.087265    1.405598    0.880672
H     4.155073    2.930520    0.000000
H     4.087265    1.405598   -0.880672
H    -2.527896   -0.075379   -0.874546
H    -2.527896   -0.075379    0.874546
H     1.845994    2.557334    0.874089
H     1.845994    2.557334   -0.874089
H    -0.326053   -1.280282   -0.874781
H    -0.326053   -1.280282    0.874781
H     1.870789    0.052846    0.874570
H     1.870789    0.052846   -0.874570
H    -0.342088    1.230153   -0.875038
H    -0.342088    1.230153    0.875038
