18
o-xylene[B3LYP/aug-cc-pVTZ]
C     0.000000    0.693498    1.952555
C     0.000000   -0.693498    1.952555
C     0.000000    1.377876    0.743109
C     0.000000   -1.377876    0.743109
C     0.000000    0.703110   -0.476273
C     0.000000   -0.703110   -0.476273
C     0.000000    1.477433   -1.768050
C     0.000000   -1.477433   -1.768050
H     0.000000    1.241957    2.885153
H     0.000000   -1.241957    2.885153
H     0.000000    2.461031    0.743277
H     0.000000   -2.461031    0.743277
H     0.876446    1.245249   -2.378000
H    -0.876446    1.245249   -2.378000
H     0.000000    2.550074   -1.580471
H     0.876446   -1.245249   -2.378000
H     0.000000   -2.550074   -1.580471
H    -0.876446   -1.245249   -2.378000
