26
octane[B3LYP/aug-cc-pVTZ]
C     2.743376    0.386487    0.533004
C     3.403443   -0.769047   -0.220309
C     1.628643    1.096455   -0.247194
C     0.402478    0.244625   -0.603456
C    -0.402478   -0.244624    0.603457
C    -1.628643   -1.096455    0.247194
C    -2.743376   -0.386487   -0.533004
C    -3.403443    0.769047    0.220308
H     3.803237   -0.434641   -1.180362
H     4.230374   -1.189255    0.353881
H    -3.507182   -1.127157   -0.783972
H    -4.230374    1.189255   -0.353882
H    -2.701500    1.579527    0.420693
H    -3.803238    0.434642    1.180362
H     2.701500   -1.579527   -0.420694
H    -0.242366    0.842416   -1.252097
H     2.055029    1.496389   -1.172579
H     3.507182    1.127157    0.783972
H     2.356936    0.024239    1.488923
H    -1.295689   -1.964325   -0.330509
H    -2.356936   -0.024240   -1.488923
H     0.709119   -0.617126   -1.204218
H     1.295689    1.964325    0.330509
H     0.242366   -0.842416    1.252098
H    -0.709119    0.617127    1.204218
H    -2.055029   -1.496389    1.172580
