17
2-methylaniline[B3LYP/aug-cc-pVTZ]
C    -1.885447   -0.818106    0.007501
C    -1.975051    0.568350   -0.000697
C    -0.628773   -1.412605    0.008802
C    -0.822932    1.340246   -0.004708
C     0.543272   -0.661462    0.000704
C     0.440882    0.742403   -0.003804
C     1.892340   -1.326342   -0.010307
N     1.590034    1.533681   -0.069114
H    -2.777856   -1.428093    0.012258
H    -2.942118    1.053384   -0.001815
H    -0.550201   -2.492945    0.013468
H    -0.896228    2.421222   -0.012731
H     2.483420   -1.022758   -0.878512
H     2.479480   -1.078545    0.880504
H     1.791171   -2.409860   -0.037583
H     2.429428    1.133051    0.315391
H     1.466926    2.493869    0.207873
