8
oxazole[B3LYP/aug-cc-pVTZ]
C     0.752140   -0.876732    0.000000
C    -0.594330   -0.964738    0.000000
C     0.000000    1.101527    0.000000
N     1.118628    0.463667    0.000000
O    -1.098400    0.308078    0.000000
H     1.482368   -1.666223    0.000000
H    -1.305329   -1.768953    0.000000
H    -0.167090    2.164537    0.000000
