8
oxalicacid[B3LYP/aug-cc-pVTZ]
C    -0.054169    0.770269    0.000000
C     0.054169   -0.770269    0.000000
O    -1.121261    1.323096    0.000000
O     1.121261   -1.323096    0.000000
O     1.121261    1.380321    0.000000
O    -1.121261   -1.380321    0.000000
H     1.811137    0.691631    0.000000
H    -1.811137   -0.691631    0.000000
