9
oxadithiolane[B3LYP/aug-cc-pVTZ]
S     0.050457   -1.283028    0.254896
S     1.318484    0.295909   -0.230152
O    -1.268667   -0.524946   -0.458383
C     0.011024    1.451390    0.341037
C    -1.372949    0.839488   -0.008592
H     0.172355    2.395956   -0.175996
H     0.109777    1.603307    1.412522
H    -1.847822    1.369365   -0.831999
H    -2.016479    0.879572    0.871964
