10
oxetane[B3LYP/aug-cc-pVTZ]
C    -0.000362   -0.062016    1.039066
C    -0.000362   -0.062016   -1.039066
H    -0.886662    1.703368    0.000000
H     0.886384    1.702690    0.000000
C    -0.000362    1.073690    0.000000
H    -0.890999   -0.134448    1.666799
H     0.889472   -0.133116    1.668112
H    -0.890999   -0.134448   -1.666799
H     0.889472   -0.133116   -1.668112
O     0.001231   -1.071110    0.000000
