12
p-difluorobenzene[B3LYP/aug-cc-pVTZ]
C     0.000000    0.000000    1.363040
C     0.000000    0.000000   -1.363040
C     0.000000    1.211776    0.695210
C     0.000000   -1.211776    0.695210
C     0.000000   -1.211776   -0.695210
C     0.000000    1.211776   -0.695210
F     0.000000    0.000000    2.715276
F     0.000000    0.000000   -2.715276
H     0.000000    2.134857    1.256229
H     0.000000   -2.134857    1.256229
H     0.000000   -2.134857   -1.256229
H     0.000000    2.134857   -1.256229
