17
p-aminobenzoicacid[B3LYP/aug-cc-pVTZ]
O     2.762394   -1.105018    0.003022
C     2.156561    0.114744    0.002536
O     2.803915    1.137760    0.005269
C     0.686414    0.034495   -0.001330
C    -0.049953    1.223608   -0.002784
C    -1.429416    1.203832   -0.004972
C    -2.123979   -0.016126   -0.004799
N    -3.503279   -0.040515   -0.054095
C    -1.386039   -1.209122   -0.004321
C    -0.004739   -1.181360   -0.002372
H     3.714017   -0.931351    0.005078
H     0.483823    2.163304   -0.001130
H    -1.984440    2.133422   -0.009930
H    -3.992208    0.795011    0.217353
H    -3.962914   -0.892079    0.218605
H    -1.907089   -2.158183   -0.008827
H     0.548189   -2.108876   -0.000570
