15
p-bromotoluene[B3LYP/aug-cc-pVTZ]
C     1.737843    1.195180   -0.010347
C     1.737853   -1.194962   -0.010341
C     0.347810    1.206239   -0.004724
C     0.347993   -1.206083   -0.004728
C     2.457404    0.000211   -0.010323
C    -0.336699    0.000119   -0.000585
C     3.963093   -0.000145    0.015748
Br    -2.250263   -0.000066    0.003253
H     2.268493    2.138997   -0.017455
H     2.268547   -2.138775   -0.017460
H    -0.192595    2.141409   -0.006935
H    -0.192414   -2.141254   -0.006960
H     4.369539   -0.873408   -0.494005
H     4.369331    0.891017   -0.461955
H     4.336524   -0.019036    1.042713
