14
p-chloroaniline[B3LYP/aug-cc-pVTZ]
C     0.002824    1.104180    1.201145
C     0.002824    1.104180   -1.201145
C     0.002824   -0.282935    1.203368
C     0.002824   -0.282935   -1.203368
C     0.001749    1.821531    0.000000
C     0.002775   -0.973267    0.000000
N     0.059244    3.213615    0.000000
Cl     0.000656   -2.729245    0.000000
H     0.008179    1.636737    2.143798
H     0.008179    1.636737   -2.143798
H     0.002153   -0.824965    2.137851
H     0.002153   -0.824965   -2.137851
H    -0.270719    3.666897    0.836100
H    -0.270719    3.666897   -0.836100
