18
p-methoxyaniline[B3LYP/aug-cc-pVTZ]
C     0.968305   -1.191866   -0.005659
C     1.297498    1.177941   -0.005925
C    -0.412677   -1.004932   -0.001215
C    -0.072135    1.370804   -0.000176
C     1.845461   -0.110566   -0.007083
C    -0.943492    0.281050    0.001739
C    -3.203619   -0.496341    0.002648
N     3.234655   -0.299516   -0.075261
O    -2.281512    0.577362    0.007741
H     1.361714   -2.200914   -0.013324
H     1.955088    2.038508   -0.014741
H    -1.054456   -1.872710    0.000780
H    -0.487426    2.369078    0.002544
H    -3.093299   -1.125308    0.890843
H    -3.093184   -1.116539   -0.891616
H    -4.192458   -0.045145    0.004971
H     3.556642   -1.185853    0.280103
H     3.780840    0.460055    0.299362
