8
penta-2-4-diynal[B3LYP/aug-cc-pVTZ]
O    -2.769216   -0.536264    0.000215
C    -0.546543    0.198083   -0.000698
C    -1.974175    0.375575    0.000309
C     0.660285    0.101518   -0.000632
C     2.012661   -0.024555   -0.000207
C     3.212576   -0.134634    0.000498
H    -2.304988    1.428398    0.001460
H     4.269894   -0.234210    0.001198
