8
penta-1-4-diyn-3-one[B3LYP/aug-cc-pVTZ]
O    -0.000002    1.727755    0.000063
C     0.000000    0.513409   -0.000056
C    -1.221816   -0.263144   -0.000092
C     1.221818   -0.263140   -0.000093
C    -2.237923   -0.902147    0.000052
C     2.237924   -0.902146    0.000041
H    -3.142391   -1.459515    0.000203
H     3.142392   -1.459515    0.000184
