16
p-nitroaniline[B3LYP/aug-cc-pVTZ]
C    -0.002527   -1.360148    1.209015
C    -0.002527   -1.360148   -1.209015
C    -0.002527    0.019496    1.209747
C    -0.002527    0.019496   -1.209747
C    -0.001512   -2.076412    0.000000
C    -0.002390    0.706727    0.000000
N    -0.043718   -3.450313    0.000000
N    -0.000096    2.164119    0.000000
O     0.000905    2.738949    1.083563
O     0.000905    2.738949   -1.083563
H    -0.005983   -1.897716    2.148203
H    -0.005983   -1.897716   -2.148203
H    -0.001593    0.575824    2.134036
H    -0.001593    0.575824   -2.134036
H     0.195712   -3.935056    0.846913
H     0.195712   -3.935056   -0.846913
