23
pentyl-acetate[B3LYP/aug-cc-pVTZ]
C    -1.760775    2.179912    0.000000
C    -3.257433    2.344694    0.000000
C     3.309060   -3.268875    0.000000
C     1.838693   -2.855555    0.000000
C     1.639526   -1.339018    0.000000
C     0.167821   -0.923390    0.000000
C     0.000000    0.582801    0.000000
O    -0.959601    3.081295    0.000000
O    -1.416146    0.876019    0.000000
H    -3.685781    1.861519    0.878050
H    -3.685781    1.861519   -0.878050
H    -3.506083    3.401176    0.000000
H     3.827078   -2.884132   -0.880810
H     3.827078   -2.884132    0.880810
H     3.417166   -4.354194    0.000000
H     1.339037   -3.283396    0.874078
H     1.339037   -3.283396   -0.874078
H     2.140097   -0.911420    0.874802
H     2.140097   -0.911420   -0.874802
H    -0.335676   -1.338585    0.876781
H    -0.335676   -1.338585   -0.876781
H     0.452021    1.041556   -0.880361
H     0.452021    1.041556    0.880361
