14
pentalene[B3LYP/aug-cc-pVTZ]
C     1.340358    1.082599    0.000000
C     2.159435   -0.166489    0.000000
C     1.340358   -1.239684    0.000000
C    -1.340358   -1.082599    0.000000
C    -2.159435    0.166489    0.000000
C    -1.340358    1.239684    0.000000
C     0.038329    0.726381    0.000000
C    -0.038329   -0.726381    0.000000
H     1.756064    2.079976    0.000000
H     3.238150   -0.182744    0.000000
H     1.637830   -2.276002    0.000000
H    -1.756064   -2.079976    0.000000
H    -3.238150    0.182744    0.000000
H    -1.637830    2.276002    0.000000
