19
pentan-1-amine[B3LYP/aug-cc-pVTZ]
C    -3.193395    0.219196    0.022962
C    -1.870687   -0.543222   -0.031096
C    -0.644306    0.369108    0.017163
C     0.681934   -0.388325   -0.039089
C     1.902025    0.524730    0.012238
N     3.142821   -0.252296   -0.075802
H    -4.046943   -0.459069   -0.014935
H    -3.274969    0.803363    0.942009
H    -3.283672    0.912302   -0.816050
H    -1.834066   -1.145994   -0.943292
H    -1.824205   -1.251686    0.801403
H    -0.682799    0.973279    0.929858
H    -0.692022    1.077721   -0.816618
H     0.733834   -0.987957   -0.951398
H     0.730562   -1.095733    0.796545
H     1.844936    1.150237    0.914816
H     1.879005    1.205826   -0.842025
H     3.244316   -0.859616    0.728902
H     3.952849    0.354475   -0.091672
