14
phenylacetylene[B3LYP/aug-cc-pVTZ]
C     0.000000    0.000000    0.592096
C     0.000000    0.000000    2.018067
C     0.000000    1.207433   -0.119647
C     0.000000   -1.207433   -0.119647
C     0.000000    1.203152   -1.506425
C     0.000000   -1.203152   -1.506425
C     0.000000    0.000000   -2.204188
C     0.000000    0.000000    3.219986
H     0.000000    0.000000    4.280998
H     0.000000    2.140945    0.425266
H     0.000000   -2.140945    0.425266
H     0.000000    2.141685   -2.044307
H     0.000000   -2.141685   -2.044307
H     0.000000    0.000000   -3.285824
