13
phenol[B3LYP/aug-cc-pVTZ]
C     0.021569   -1.850874    0.000000
C    -1.183942   -1.160029    0.000000
C     1.216077   -1.136120    0.000000
C    -1.200429    0.230252    0.000000
C     1.212740    0.251632    0.000000
C     0.000000    0.935940    0.000000
O     0.048212    2.303596    0.000000
H     0.031441   -2.931667    0.000000
H    -2.120454   -1.701426    0.000000
H     2.160924   -1.662963    0.000000
H    -2.142899    0.765406    0.000000
H     2.134448    0.816335    0.000000
H    -0.845249    2.660743    0.000000
