13
pent-1-yne[B3LYP/aug-cc-pVTZ]
C    -2.632692    0.270492    0.000000
C    -1.445615    0.445322    0.000000
C     2.298303   -0.462071    0.000000
C     0.000000    0.632435    0.000000
C     0.789039   -0.688491    0.000000
H    -3.683318    0.121999    0.000000
H     2.615695    0.098825    0.881392
H     2.836529   -1.410299    0.000000
H     2.615695    0.098825   -0.881392
H     0.283301    1.225765   -0.874581
H     0.283301    1.225765    0.874581
H     0.497294   -1.273503   -0.874226
H     0.497294   -1.273503    0.874226
