17
piperidine[B3LYP/aug-cc-pVTZ]
C     0.627734    1.332116    0.000000
C    -0.015015    0.749126    1.262844
C    -0.015015    0.749126   -1.262844
C    -0.015015   -0.777813    1.216280
C    -0.015015   -0.777813   -1.216280
N    -0.683238   -1.236622    0.000000
H     0.550093    2.421274    0.000000
H     1.697146    1.095686    0.000000
H     0.514966    1.090753    2.154644
H    -1.048069    1.096853    1.343790
H    -1.048069    1.096853   -1.343790
H     0.514966    1.090753   -2.154644
H     1.028243   -1.134962    1.275130
H    -0.545722   -1.185262    2.078063
H    -0.545722   -1.185262   -2.078063
H     1.028243   -1.134962   -1.275130
H    -0.769444   -2.243821    0.000000
