17
prop-1-ynylbenzene[B3LYP/aug-cc-pVTZ]
C    -1.391545    0.000201   -0.000002
C    -2.595600    0.000392   -0.000004
C     2.836362   -0.000147    0.000002
C     2.137248    1.202242    0.000001
C     2.137077   -1.202403    0.000001
C     0.750328    1.206082   -0.000001
C     0.750116   -1.206050   -0.000001
C     0.034638    0.000067   -0.000002
C    -4.050167   -0.000024    0.000003
H     3.918041   -0.000216    0.000003
H     2.674572    2.141336    0.000001
H     2.674269   -2.141571    0.000002
H     0.206696    2.140516   -0.000001
H     0.206275   -2.140361   -0.000001
H    -4.443661   -0.509666    0.881896
H    -4.443259    1.018099   -0.000365
H    -4.443669   -0.510309   -0.881514
