17
proline[B3LYP/aug-cc-pVTZ]
N     0.636602   -1.058123    0.492208
C    -0.121601    0.212497    0.582235
C    -1.541645    0.060070    0.027611
O    -2.347827    0.951873    0.041962
O    -1.796324   -1.151121   -0.486153
C     0.698716    1.255847   -0.214727
C     2.124667    0.698806   -0.171428
C     1.890352   -0.811433   -0.258644
H    -0.226886    0.531260    1.620367
H     0.341413    1.305448   -1.244399
H     0.600663    2.251274    0.210253
H     2.751505    1.078563   -0.977576
H     2.605897    0.951778    0.776149
H     1.755051   -1.114676   -1.299508
H     2.701458   -1.409225    0.154057
H     0.836365   -1.421455    1.412453
H    -0.971410   -1.666847   -0.334004
