25
phenylsulfonylbenzene[B3LYP/aug-cc-pVTZ]
O     1.182952    0.463928    2.029051
S     0.000000    0.000000    1.311979
O    -1.182952   -0.463928    2.029051
C    -0.520392    1.327106    0.212950
C     0.409097    2.277935   -0.192069
C     0.000000    3.304743   -1.033775
C    -1.322848    3.373603   -1.458638
C    -2.245249    2.421077   -1.037808
C    -1.847361    1.389895   -0.196106
C     0.520392   -1.327106    0.212950
C    -0.409097   -2.277935   -0.192069
C     0.000000   -3.304743   -1.033775
C     1.322848   -3.373603   -1.458638
C     2.245249   -2.421077   -1.037808
C     1.847361   -1.389895   -0.196106
H     1.426580    2.222201    0.166269
H     0.711915    4.054300   -1.350886
H    -1.637459    4.175977   -2.112088
H    -3.276080    2.484727   -1.358041
H    -2.555114    0.655284    0.159175
H    -1.426580   -2.222201    0.166269
H    -0.711915   -4.054300   -1.350886
H     1.637459   -4.175977   -2.112088
H     3.276080   -2.484727   -1.358041
H     2.555114   -0.655284    0.159175
