16
piperazine[B3LYP/aug-cc-pVTZ]
C    -0.834927    0.310226   -1.120699
C    -0.863686   -1.052974   -0.441012
C     0.863686    1.052974    0.441012
C     0.834927   -0.310226    1.120699
N    -0.450116    1.325039   -0.140555
N     0.450116   -1.325039    0.140555
H    -0.136260    0.260567   -1.970344
H    -1.825522    0.552488   -1.508068
H    -1.664933   -1.048703    0.314250
H    -1.091286   -1.828069   -1.174163
H     1.091286    1.828069    1.174163
H     1.664933    1.048703   -0.314250
H     1.825522   -0.552488    1.508068
H     0.136260   -0.260567    1.970344
H    -0.474735    2.247690   -0.552801
H     0.474735   -2.247690    0.552801
