8
prop-2-enenitrile-oxide[B3LYP/aug-cc-pVTZ]
O    -2.423172   -0.167625    0.000000
N    -1.229268    0.011793   -0.000004
C    -0.078874    0.155417   -0.000002
C     1.300610    0.480348    0.000003
C     2.286856   -0.419406    0.000002
H     1.529592    1.540379    0.000009
H     2.091078   -1.482044   -0.000004
H     3.318032   -0.098033    0.000007
