10
propanal[B3LYP/aug-cc-pVTZ]
C     0.996293   -0.222905    0.000000
C    -1.458518    0.470962    0.000000
C     0.000000    0.905538    0.000000
O     0.716194   -1.394736    0.000000
H     2.059410    0.097311    0.000000
H    -1.685732   -0.133233    0.877361
H    -1.685732   -0.133233   -0.877361
H    -2.117948    1.338361    0.000000
H     0.236898    1.533556   -0.867218
H     0.236898    1.533556    0.867218
