7
prop-2-ynethioicacid[B3LYP/aug-cc-pVTZ]
S    -1.415690   -0.626525   -0.000006
O    -0.221616    1.707573    0.000000
C    -0.028547    0.519090    0.000000
C     1.281666   -0.084082    0.000004
C     2.374298   -0.580157    0.000009
H    -0.687542   -1.757741   -0.000004
H     3.347002   -1.007548    0.000013
