9
allenediol[B3LYP/aug-cc-pVTZ]
C     0.000000    0.000000    0.314636
C     0.000000    1.305048    0.357543
C     0.000000   -1.305048    0.357543
O     0.776928    2.146963   -0.393553
O    -0.776928   -2.146963   -0.393553
H    -0.646254    1.874974    1.014469
H     0.646254   -1.874974    1.014469
H     1.357245    1.618777   -0.955207
H    -1.357245   -1.618777   -0.955207
