9
prop-2-yne-1-1-diol[B3LYP/aug-cc-pVTZ]
O    -1.069401   -1.177081   -0.114653
O    -1.069399    1.177108   -0.114381
C    -0.471048   -0.000047    0.382369
C     0.979054   -0.000017    0.143241
C     2.155246    0.000008   -0.089537
H    -0.691133   -1.390931   -0.974818
H    -0.691105    1.391185   -0.974478
H    -0.685912   -0.000169    1.449763
H     3.199039    0.000030   -0.284622
