9
propenalol[B3LYP/aug-cc-pVTZ]
C     0.000000    1.096648    0.000000
C     1.231022    0.361916    0.000000
C    -1.183818    0.424873    0.000000
O     1.286331   -0.874778    0.000000
O    -1.283038   -0.888616    0.000000
H    -0.346283   -1.239665    0.000000
H     0.009428    2.175177    0.000000
H     2.168876    0.938076    0.000000
H    -2.141591    0.932940    0.000000
