7
2-propynoicacid[B3LYP/aug-cc-pVTZ]
O    -1.140757    1.067901   -0.000039
O    -1.122638   -1.159311   -0.000036
C    -0.509953   -0.131001   -0.000019
C     0.939527   -0.050347    0.000023
C     2.137587    0.000371    0.000080
H    -0.495557    1.786680   -0.000024
H     3.199749    0.030461    0.000128
