14
propane-1-2-3-trithiol[B3LYP/aug-cc-pVTZ]
C     0.834198   -0.936571   -0.030495
C    -1.402371   -0.269951    0.991854
C     0.042139    0.149384    0.691781
S     2.619734   -0.495778   -0.173755
S    -2.501238   -0.563857   -0.452043
S     0.149502    1.790968   -0.137745
H     0.429951   -1.103433   -1.026573
H     0.765825   -1.867304    0.532760
H    -1.408866   -1.167657    1.610121
H    -1.897031    0.521267    1.550558
H     0.520127    0.338062    1.655473
H     3.083147   -1.750169   -0.026735
H    -2.037822   -1.781895   -0.783799
H    -0.587096    1.452627   -1.213971
