12
propynylpropiolate[B3LYP/aug-cc-pVTZ]
O     0.219214   -0.692487    0.000002
O    -1.737049   -1.731787    0.000000
C    -1.131002   -0.695733    0.000000
C    -1.795334    0.594519   -0.000001
C     0.941706    0.562529    0.000002
C     2.364687    0.276671    0.000000
C    -2.399277    1.630600   -0.000004
C     3.545311    0.077874    0.000000
H     0.670540    1.140839    0.884807
H     0.670539    1.140839   -0.884803
H    -2.945518    2.542080   -0.000006
H     4.590571   -0.108328   -0.000001
