23
propyl-butanoate[B3LYP/aug-cc-pVTZ]
C     0.000000    0.612118    0.000000
C     3.008130    3.090722    0.000000
C    -2.513916   -3.581102    0.000000
C     1.428318    1.107953    0.000000
C     1.552590    2.627842    0.000000
C    -1.172950   -2.848444    0.000000
C    -1.353001   -1.343669    0.000000
O    -0.985991    1.306773    0.000000
O    -0.041603   -0.736721    0.000000
H     3.073746    4.179115    0.000000
H     3.541696    2.727258    0.880860
H     3.541696    2.727258   -0.880860
H    -3.106341   -3.328029   -0.881190
H    -2.366530   -4.660890    0.000000
H    -3.106341   -3.328029    0.881190
H     1.929119    0.673098    0.869456
H     1.929119    0.673098   -0.869456
H     1.031923    3.030231   -0.870409
H     1.031923    3.030231    0.870409
H    -0.587970   -3.136322   -0.876168
H    -0.587970   -3.136322    0.876168
H    -1.899180   -1.001821   -0.880481
H    -1.899180   -1.001821    0.880481
