24
propylcyclopentane[B3LYP/aug-cc-pVTZ]
C    -2.668057   -0.516202   -0.151817
C    -2.379219    0.990207    0.083732
C    -1.340914   -1.229360    0.139892
C    -0.838544    1.117468    0.194491
C    -0.268079   -0.224742   -0.304017
C     3.632805   -0.000756    0.134440
C     1.143001   -0.554336    0.179922
C     2.231894    0.390324   -0.333620
H    -3.488035   -0.885577    0.464020
H    -2.953947   -0.684716   -1.191912
H    -2.769755    1.593120   -0.736241
H    -2.864319    1.350360    0.991058
H    -1.236812   -1.414843    1.213997
H    -1.254830   -2.193162   -0.364168
H    -0.452275    1.972210   -0.360265
H    -0.546339    1.259696    1.238803
H    -0.259603   -0.208411   -1.401207
H     3.700615    0.007006    1.224348
H     3.895190   -1.005453   -0.203653
H     4.388824    0.686078   -0.248814
H     1.393620   -1.576741   -0.122604
H     1.150697   -0.552656    1.276131
H     2.014697    1.411417   -0.009971
H     2.204946    0.406052   -1.427659
