12
pyridine-3-carbonitrile[B3LYP/aug-cc-pVTZ]
C    -0.053693    2.019437    0.000000
C     1.204654   -1.469386    0.000000
C     1.220966   -0.085509    0.000000
C    -0.022972   -2.123259    0.000000
C    -1.181722   -0.159565    0.000000
C     0.000000    0.592498    0.000000
N    -0.100145    3.170672    0.000000
N    -1.195466   -1.486799    0.000000
H     2.124938   -2.035655    0.000000
H     2.150017    0.466484    0.000000
H    -0.067713   -3.205810    0.000000
H    -2.141358    0.342572    0.000000
