13
pyridine-2-4-diol[B3LYP/aug-cc-pVTZ]
C    -1.181319   -1.083539    0.000000
C     0.000000    1.010809    0.000000
C     0.048798   -1.709300    0.000000
C    -1.198215    0.314134    0.000000
C     1.176033    0.261682    0.000000
N     1.220451   -1.060717    0.000000
O    -2.406742    0.931648    0.000000
O     2.354509    0.926245    0.000000
H    -2.104345   -1.642803    0.000000
H     0.041008    2.091380    0.000000
H     0.107341   -2.790875    0.000000
H    -2.290414    1.887774    0.000000
H     3.049335    0.253679    0.000000
