15
quadricyclane[B3LYP/aug-cc-pVTZ]
C    -0.756547    0.773373   -0.707390
C     0.756547    0.773373   -0.707390
C     0.000000    1.149648    0.549230
C    -0.756547   -0.773373   -0.707390
C     0.756547   -0.773373   -0.707390
C     0.000000   -1.149648    0.549230
C     0.000000    0.000000    1.534441
H    -1.443256    1.422663   -1.227100
H     1.443256    1.422663   -1.227100
H     0.000000    2.180720    0.872633
H    -1.443256   -1.422663   -1.227100
H     1.443256   -1.422663   -1.227100
H     0.000000   -2.180720    0.872633
H     0.887300    0.000000    2.171546
H    -0.887300    0.000000    2.171546
