11
pyrimidine-2-carbonitrile[B3LYP/aug-cc-pVTZ]
C     0.000000    0.000000    1.983144
C     0.000000    0.000000   -2.114003
C     0.000000    1.182119   -1.386720
C     0.000000   -1.182119   -1.386720
C     0.000000    0.000000    0.536531
N     0.000000    0.000000    3.132944
N     0.000000    1.194621   -0.055327
N     0.000000   -1.194621   -0.055327
H     0.000000    0.000000   -3.193985
H     0.000000    2.147839   -1.877717
H     0.000000   -2.147839   -1.877717
