11
pyridine[B3LYP/aug-cc-pVTZ]
C     0.000000    1.138944    0.719367
N     0.000000    0.000000    1.412722
C     0.000000    1.193219   -0.669712
C     0.000000   -1.138944    0.719367
C     0.000000   -1.193219   -0.669712
C     0.000000    0.000000   -1.378970
H     0.000000   -2.147907   -1.177548
H     0.000000    2.053255    1.302467
H     0.000000    2.147907   -1.177548
H     0.000000   -2.053255    1.302467
H     0.000000    0.000000   -2.460925
