17
quinoline[B3LYP/aug-cc-pVTZ]
C     0.000000    0.703651    0.000000
N    -1.128178    1.465945    0.000000
C     1.258493    1.350388    0.000000
C    -2.286918    0.851830    0.000000
C    -2.438097   -0.553100    0.000000
C    -1.316052   -1.335881    0.000000
C    -0.043208   -0.722482    0.000000
C     2.416244    0.616895    0.000000
C     2.373746   -0.794928    0.000000
C     1.170348   -1.450387    0.000000
H    -3.428480   -0.986603    0.000000
H    -3.168814    1.484250    0.000000
H     3.297826   -1.356965    0.000000
H     3.374149    1.119515    0.000000
H    -1.387749   -2.416474    0.000000
H     1.132723   -2.532563    0.000000
H     1.270259    2.431307    0.000000
