17
1-2-pyridylsulfanylethanone[B3LYP/aug-cc-pVTZ]
C     2.274150    1.388749   -0.000069
C     3.234944    0.386128    0.000107
C     0.927785    1.052725   -0.000171
C     2.801859   -0.932997    0.000173
C     0.607018   -0.304386   -0.000074
C    -2.244819    0.347643    0.000025
C    -3.658489   -0.190391    0.000171
N     1.514712   -1.276021    0.000089
O    -1.993920    1.525908    0.000110
S    -1.049030   -0.997881   -0.000205
H     2.565776    2.430616   -0.000132
H     4.290895    0.616050    0.000187
H     0.153685    1.800661   -0.000305
H     3.511957   -1.751445    0.000302
H    -4.172879    0.194508   -0.880641
H    -4.172111    0.193012    0.882092
H    -3.699155   -1.277234   -0.000689
