18
quinolizin-4-one[B3LYP/aug-cc-pVTZ]
C     2.686397   -0.273422    0.000000
C    -1.985691   -1.496841    0.000000
C     1.738404   -1.247442    0.000000
C    -2.345922   -0.171174    0.000000
C     2.286782    1.088692    0.000000
C    -0.649161   -1.894413    0.000000
C     0.967175    1.392721    0.000000
C     0.349704   -0.934931    0.000000
C    -1.385928    0.877093    0.000000
N     0.000000    0.414424    0.000000
O    -1.598324    2.082096    0.000000
H     3.736243   -0.531122    0.000000
H    -2.760364   -2.253013    0.000000
H     2.008743   -2.293604    0.000000
H    -3.380584    0.135967    0.000000
H     3.014749    1.885444    0.000000
H    -0.368672   -2.936075    0.000000
H     0.565928    2.392966    0.000000
