16
quinoxaline[B3LYP/aug-cc-pVTZ]
C     0.000000    0.706926    2.368951
C     0.000000   -0.706926    2.368951
C     0.000000    1.406054    1.190448
C     0.000000   -1.406054    1.190448
C     0.000000    0.708403   -2.312800
C     0.000000   -0.708403   -2.312800
C     0.000000    0.712878   -0.041323
C     0.000000   -0.712878   -0.041323
N     0.000000    1.410993   -1.208183
N     0.000000   -1.410993   -1.208183
H     0.000000    1.237156    3.311638
H     0.000000   -1.237156    3.311638
H     0.000000    2.486877    1.166492
H     0.000000   -2.486877    1.166492
H     0.000000    1.250205   -3.252504
H     0.000000   -1.250205   -3.252504
