15
3-furyl-methylsulfanyl-methanone[B3LYP/aug-cc-pVTZ]
C    -1.392165    1.170066    0.000000
C    -1.428012    2.519619    0.000000
C     0.691129    1.983502    0.000000
C     0.000000    0.807541    0.000000
C     0.635993   -0.516796    0.000000
C     0.661715   -3.268787    0.000000
O     1.835393   -0.684653    0.000000
O    -0.157808    3.030443    0.000000
S    -0.521930   -1.891204    0.000000
H    -2.241204    0.509673    0.000000
H    -2.223626    3.241441    0.000000
H     1.742596    2.204050    0.000000
H     1.285248   -3.226145    0.888112
H     1.285248   -3.226145   -0.888112
H     0.069983   -4.180792    0.000000
