13
sarcosine[B3LYP/aug-cc-pVTZ]
H    -1.062995    1.233708   -0.007749
N    -1.287298    0.301061   -0.329906
H    -2.668450   -0.329662    1.188710
H    -2.886524   -1.049290   -0.414325
H    -3.337280    0.630006   -0.147704
C    -2.603422   -0.132820    0.107415
H    -0.323323   -1.023463    1.042073
H    -0.185290   -1.445839   -0.662916
C    -0.216255   -0.595054    0.027536
O     1.244161    1.313708    0.076402
C     1.122183    0.123838    0.016980
H     1.964442   -1.602938   -0.095392
O     2.217773   -0.675674   -0.014519
