24
sec-butylbenzene[B3LYP/aug-cc-pVTZ]
C     2.857988   -0.186371   -0.233131
C     2.053766    0.384179   -1.214486
C     2.290498   -0.563987    0.976902
C     0.697008    0.573868   -0.984913
C     0.930680   -0.371454    1.200202
C     0.110355    0.199210    0.227134
C    -2.106231   -1.897819   -0.384502
C    -1.735472    1.906080    0.469313
C    -2.268736   -0.382193   -0.478594
C    -1.370680    0.413775    0.488686
H     3.914630   -0.333895   -0.411250
H     2.484835    0.682992   -2.161028
H     2.904128   -1.009341    1.748912
H     0.089544    1.020400   -1.761714
H     0.498685   -0.670061    2.147496
H    -2.781757   -2.406774   -1.073300
H    -1.088989   -2.207419   -0.625697
H    -2.330630   -2.254856    0.622994
H    -1.578291    2.339587   -0.519828
H    -2.785198    2.048697    0.731767
H    -1.128084    2.469271    1.178299
H    -2.072665   -0.053669   -1.503150
H    -3.308762   -0.116218   -0.270236
H    -1.572502    0.039560    1.497058
