15
S-nitrosocysteine[B3LYP/aug-cc-pVTZ]
S    -1.708055   -0.944543    0.238777
O     2.543314    1.082665   -0.736842
O     3.099840   -0.995616   -0.091408
O    -3.637533    0.704920   -0.308545
N     0.648212    1.175180    1.198357
N    -2.500457    0.538811   -0.543859
C     0.958154   -0.108039    0.596436
C    -0.057481   -0.638317   -0.450388
C     2.322002   -0.078776   -0.081186
H     1.047909   -0.847293    1.390980
H     0.293305   -1.573053   -0.885849
H    -0.196720    0.090629   -1.251576
H    -0.227541    1.132950    1.703394
H     0.584033    1.910377    0.505497
H     3.412596    1.016178   -1.159186
