13
spiropentane[B3LYP/aug-cc-pVTZ]
C     0.000000    0.000000    0.000000
C     0.000000    0.763303    1.266524
C     0.000000   -0.763303    1.266524
C    -0.763303    0.000000   -1.266524
C     0.763303    0.000000   -1.266524
H     0.910461    1.264133    1.569347
H    -0.910461    1.264133    1.569347
H    -0.910461   -1.264133    1.569347
H     0.910461   -1.264133    1.569347
H    -1.264133   -0.910461   -1.569347
H    -1.264133    0.910461   -1.569347
H     1.264133    0.910461   -1.569347
H     1.264133   -0.910461   -1.569347
