20
syn-tricyclo-4-2-0-0-octane[B3LYP/aug-cc-pVTZ]
C    -0.780890    0.782120    0.714182
C     0.780890    0.782120    0.714182
C     0.780890   -0.782120    0.714182
C    -0.780890   -0.782120    0.714182
C    -1.552994    0.779426   -0.630946
C    -1.552994   -0.779426   -0.630946
H    -1.230266    1.359101    1.520382
H    -1.230266   -1.359101    1.520382
H    -1.058422    1.259186   -1.474246
H    -2.550804    1.207825   -0.545553
H    -2.550804   -1.207825   -0.545553
H    -1.058422   -1.259186   -1.474246
C     1.552994   -0.779426   -0.630946
C     1.552994    0.779426   -0.630946
H     1.230266    1.359101    1.520382
H     1.230266   -1.359101    1.520382
H     2.550804   -1.207825   -0.545553
H     1.058422   -1.259186   -1.474246
H     2.550804    1.207825   -0.545553
H     1.058422    1.259186   -1.474246
