10
sulfanyl-2-hydroxyacetate[B3LYP/aug-cc-pVTZ]
S     2.048400   -0.290055   -0.000004
O     0.344735   -0.570900    0.000028
O     0.114295    1.662368   -0.000031
O    -2.201166   -1.044702   -0.000050
C    -0.370001    0.558920    0.000004
C    -1.869456    0.327817    0.000042
H     2.266181   -1.618423    0.000025
H    -3.158635   -1.130729    0.000000
H    -2.254090    0.847812   -0.883395
H    -2.254023    0.847674    0.883591
