24
tert-butylcyclobutane[B3LYP/aug-cc-pVTZ]
C    -0.176910   -0.999418    0.000000
C     0.539789    0.364342    0.000000
C     0.254060   -1.777499    1.254087
C    -1.706916   -0.860851    0.000000
C     0.254060    1.442946    1.082409
C     0.254060   -1.777499   -1.254087
C     0.486107    2.526258    0.000000
H    -0.178689    3.388865    0.000000
H     0.895719    1.457716    1.962608
C     0.254060    1.442946   -1.082409
H     0.895719    1.457716   -1.962608
H    -2.173656   -1.847725    0.000000
H    -0.206452   -2.767279   -1.276969
H    -0.785006    1.429853    1.411389
H    -0.785006    1.429853   -1.411389
H     1.615876    0.164339    0.000000
H    -0.038955   -1.254061   -2.165956
H    -2.067434   -0.330830    0.882403
H    -2.067434   -0.330830   -0.882403
H    -0.206452   -2.767279    1.276969
H     1.337322   -1.913005   -1.279707
H     1.516228    2.882374    0.000000
H     1.337322   -1.913005    1.279707
H    -0.038955   -1.254061    2.165956
