27
tetracyclo-undecane[B3LYP/aug-cc-pVTZ]
C    -2.401528    0.502518   -0.667526
C    -2.260633   -1.021826   -0.364232
C    -1.222072    1.126694    0.106636
C    -0.997200   -1.082851    0.518924
C    -1.144453    0.209527    1.343374
C     0.221275   -0.773296   -0.380965
C     0.094854    0.782700   -0.624847
C     1.349485    1.451766    0.000179
C     1.581769   -0.992045    0.255521
C     2.270694    0.335229    0.459780
C     2.775082   -0.620972   -0.585328
H    -3.352715    0.889677   -0.300403
H    -2.352143    0.725742   -1.733924
H    -2.158654   -1.624292   -1.267296
H    -3.129856   -1.394619    0.178895
H    -1.339901    2.191878    0.303109
H    -0.899022   -2.008675    1.084603
H    -0.291880    0.414655    1.989396
H    -2.051980    0.229391    1.948912
H     0.145237   -1.338197   -1.312928
H     0.018474    1.024497   -1.684640
H     1.840307    2.119123   -0.711691
H     1.063396    2.066804    0.856481
H     1.694152   -1.794885    0.972678
H     2.893858    0.506385    1.327317
H     2.609293   -0.379963   -1.628590
H     3.707801   -1.132180   -0.391015
