13
tetrahydrofuran[B3LYP/aug-cc-pVTZ]
C     0.000000    0.766501   -0.994198
C     0.000000   -0.766501   -0.994198
C     0.461326    1.081053    0.428368
C    -0.461326   -1.081053    0.428368
O     0.000000    0.000000    1.249603
H     0.652460    1.198961   -1.751443
H    -1.009869    1.145990   -1.159921
H    -0.652460   -1.198961   -1.751443
H     1.009869   -1.145990   -1.159921
H     1.553740    1.135699    0.488606
H     0.050023    2.012637    0.819323
H    -1.553740   -1.135699    0.488606
H    -0.050023   -2.012637    0.819323
