15
tetrahydrothiopyran-2-one[B3LYP/aug-cc-pVTZ]
C     1.198990    0.282455   -0.007474
C     0.320745    1.512346   -0.137212
C    -1.130694    1.395994    0.326233
C    -1.862920    0.229297   -0.332913
C    -1.354109   -1.115286    0.160621
O     2.401259    0.353705    0.028692
S     0.466431   -1.359194   -0.017043
H     0.844846    2.313553    0.384969
H     0.347720    1.769982   -1.201227
H    -1.165948    1.279754    1.413293
H    -1.641074    2.333623    0.100488
H    -2.931348    0.287651   -0.110885
H    -1.760809    0.292350   -1.419347
H    -1.596178   -1.250293    1.214503
H    -1.802248   -1.937986   -0.394177
