25
tetraspiro-200211-undecane[B3LYP/aug-cc-pVTZ]
C     0.413406    2.700298   -1.134720
C     0.000000    3.315092    0.199170
C    -0.395103    1.934856   -0.158726
C    -1.657201    1.128232   -0.172530
C    -0.395289    0.613063    0.456739
C     0.000000    0.000000    1.767022
C     0.395289   -0.613063    0.456739
C     1.657201   -1.128232   -0.172530
C     0.395103   -1.934856   -0.158726
C     0.000000   -3.315092    0.199170
C    -0.413406   -2.700298   -1.134720
H    -0.070461    3.069979   -2.029417
H     1.454651    2.435395   -1.262890
H     0.769193    3.453264    0.948163
H    -0.755429    4.089910    0.182539
H    -2.465963    1.433064    0.481413
H    -1.971867    0.689861   -1.112222
H     0.765446    0.497373    2.351754
H    -0.765446   -0.497373    2.351754
H     1.971867   -0.689861   -1.112222
H     2.465963   -1.433064    0.481413
H    -0.769193   -3.453264    0.948163
H     0.755429   -4.089910    0.182539
H    -1.454651   -2.435395   -1.262890
H     0.070461   -3.069979   -2.029417
