10
thiadiazolidine-4-thione[B3LYP/aug-cc-pVTZ]
S    -1.849048   -0.498034   -0.251110
S     2.347895   -0.118777   -0.102268
N     0.029899    1.184602    0.018376
N    -1.384596    1.156257    0.116381
C     0.716388    0.030291    0.085786
C    -0.237505   -1.118129    0.367886
H     0.445368    2.022351   -0.358482
H    -1.620549    1.333484    1.090140
H     0.061019   -2.005332   -0.179311
H    -0.257812   -1.340511    1.436386
