21
theophylline[B3LYP/aug-cc-pVTZ]
O    -0.702493   -2.681831   -0.000062
C    -0.427456   -1.502083   -0.000033
C     0.890406   -0.915681   -0.000045
C     1.039767    0.449836   -0.000006
C     0.269702    2.790611    0.000072
N     0.022247    1.356401    0.000047
C    -1.294568    0.876674    0.000053
N    -1.455705   -0.502781    0.000017
C    -2.848272   -0.963109    0.000032
O    -2.241746    1.641359    0.000089
N     2.127187   -1.527354   -0.000091
C     2.991264   -0.559718   -0.000081
N     2.381227    0.689357   -0.000031
H     4.063530   -0.659977   -0.000108
H     2.840421    1.583267   -0.000003
H     0.825941    3.084691    0.892129
H    -0.692999    3.289743    0.000154
H     0.825822    3.084747   -0.892040
H    -3.364115   -0.590499    0.882301
H    -2.830297   -2.046278    0.000011
H    -3.364145   -0.590467   -0.882207
