10
thiolane-1-oxideB[B3LYP/aug-cc-pVTZ]
C     1.612095   -0.729797    0.125254
C     1.612095    0.729797    0.125254
C     0.390198   -1.266356    0.004379
C     0.390198    1.266356    0.004379
O    -2.034840    0.000000    0.503621
S    -0.812350    0.000000   -0.367403
H     2.522887   -1.308036    0.196077
H     2.522887    1.308036    0.196077
H     0.101515   -2.302731   -0.049137
H     0.101515    2.302731   -0.049137
