18
trans-1-2-dimethylcyclobutane[B3LYP/aug-cc-pVTZ]
C    -0.126624    0.767713   -0.173969
C     0.126624   -0.767713   -0.173969
C     0.126624    0.763654    1.356240
C    -0.126624   -0.763654    1.356240
C     0.714435    1.661716   -1.066390
C    -0.714435   -1.661716   -1.066390
H    -1.188759    0.949185   -0.364152
H     1.188759   -0.949185   -0.364152
H     1.167412    0.999661    1.584849
H    -0.514312    1.387012    1.978811
H    -1.167412   -0.999661    1.584849
H     0.514312   -1.387012    1.978811
H     1.780030    1.498868   -0.888391
H     0.519941    1.467661   -2.123812
H     0.505264    2.718063   -0.882589
H    -1.780030   -1.498868   -0.888391
H    -0.519941   -1.467661   -2.123812
H    -0.505264   -2.718063   -0.882589
