28
trans-decalin[B3LYP/aug-cc-pVTZ]
C    -0.225728    0.731655    2.543314
C     0.225728   -0.731655    2.543314
C     0.225728    1.456661    1.272775
C    -0.225728   -1.456661    1.272775
C    -0.231499    0.735086    0.000000
C     0.231499   -0.735086    0.000000
C     0.225728    1.456661   -1.272775
C    -0.225728    0.731655   -2.543314
C     0.225728   -0.731655   -2.543314
C    -0.225728   -1.456661   -1.272775
H     0.156998    1.245982   -3.427820
H    -0.156998   -1.245982    3.427820
H     0.150668   -2.483241   -1.270085
H    -0.156998   -1.245982   -3.427820
H     1.318123   -0.770907   -2.610688
H    -0.150668    2.483241    1.270085
H     0.156998    1.245982    3.427820
H    -0.150668    2.483241   -1.270085
H     0.150668   -2.483241    1.270085
H    -1.318123    0.770907    2.610688
H     1.319276    1.529769   -1.266570
H     1.319276    1.529769    1.266570
H     1.318123   -0.770907    2.610688
H    -1.318123    0.770907   -2.610688
H    -1.319276   -1.529769    1.266570
H    -1.319276   -1.529769   -1.266570
H    -1.330699    0.726592    0.000000
H     1.330699   -0.726592    0.000000
