25
trans-2-3-dimethylnorborane[B3LYP/aug-cc-pVTZ]
C     0.707742   -0.940168    1.191925
C     0.805573    0.571081    0.911672
C     0.286298   -1.294617   -0.248550
C     1.813009    0.594515   -0.256246
C    -0.630377    0.862567    0.409362
C    -0.961973   -0.400731   -0.457716
C     1.455724   -0.696655   -1.057146
H    -0.041153   -1.191218    1.943754
H     1.658013   -1.391146    1.482484
H     1.098896    1.197400    1.754117
H     0.105962   -2.349691   -0.452928
H     2.832978    0.547501    0.127018
C    -2.278499   -1.071176   -0.071401
H     2.300532   -1.386094   -1.086752
H    -1.280255    0.846643    1.290316
H     1.172461   -0.486382   -2.089154
C    -0.854203    2.196159   -0.296344
H     1.744295    1.498504   -0.859168
H    -1.027284   -0.113838   -1.511063
H    -3.112889   -0.370708   -0.150666
H    -2.254833   -1.436327    0.957417
H    -2.497120   -1.920640   -0.721600
H    -0.581866    3.037107    0.345146
H    -1.905142    2.317448   -0.566598
H    -0.272369    2.275590   -1.215659
