17
tricyclo-4-1-0-0-heptane[B3LYP/aug-cc-pVTZ]
C     0.000000    1.212629    0.508884
C     1.216393    1.420165   -0.356202
C     0.000000    0.000000    1.437632
C    -0.001233    0.749275   -0.932390
C     0.001233   -0.749275   -0.932390
C    -1.216393   -1.420165   -0.356202
H    -0.565029    2.087185    0.799175
H     2.090716    0.811351   -0.162580
H     1.434669    2.428532   -0.679316
H    -0.877843    0.008372    2.088558
H     0.877843   -0.008372    2.088558
H    -0.578811    1.277641   -1.680483
H     0.578811   -1.277641   -1.680483
H    -1.434669   -2.428532   -0.679316
H    -2.090716   -0.811351   -0.162580
C     0.000000   -1.212629    0.508884
H     0.565029   -2.087185    0.799175
