7
trifluoroacetaldehyde[B3LYP/aug-cc-pVTZ]
C     0.015025    0.360286    0.000000
C     0.501815   -1.106329    0.000000
O    -0.245494   -2.035813    0.000000
F    -1.307957    0.464386    0.000000
F     0.501815    0.987853    1.088479
F     0.501815    0.987853   -1.088479
H     1.601854   -1.198064    0.000000
