27
tryptophan[B3LYP/aug-cc-pVTZ]
N     2.144383    0.943689    1.387392
C     1.971739   -0.048913    0.317057
C     3.347538   -0.585408   -0.126533
O     3.499669   -1.288634   -1.089817
O     4.357944   -0.224123    0.675223
H     3.948061    0.342244    1.365987
C     1.161509    0.438981   -0.901876
C    -0.257433    0.783250   -0.580119
C    -0.805706    2.035533   -0.532908
N    -2.138822    1.958860   -0.185729
C    -2.481917    0.638427   -0.006198
C    -1.318044   -0.133672   -0.246754
C    -1.401983   -1.529651   -0.146912
C    -2.612554   -2.107991    0.190616
C    -3.751206   -1.320897    0.431315
C    -3.702578    0.059180    0.334532
H     1.461495   -0.911416    0.750748
H     1.667652    1.311632   -1.324861
H     1.212237   -0.340971   -1.662152
H    -0.349483    2.989906   -0.737807
H    -2.764965    2.739256   -0.115895
H    -0.538307   -2.151734   -0.341881
H    -2.688793   -3.183992    0.266850
H    -4.683614   -1.802505    0.692328
H    -4.582950    0.662376    0.513597
H     2.105789    1.887369    1.020285
H     1.416855    0.869019    2.084595
