17
trimethylorthoformate[B3LYP/aug-cc-pVTZ]
C     0.000002   -0.367307    0.256085
O    -0.000002    0.965131    0.702169
C    -0.000007    1.956470   -0.327711
O    -1.098087   -0.677695   -0.536994
C    -2.334659   -0.671033    0.163443
O     1.098092   -0.677688   -0.536995
C     2.334663   -0.671026    0.163443
H     0.000003   -0.955286    1.185152
H    -0.000019    2.916553    0.181998
H     0.887101    1.876333   -0.957416
H    -0.887109    1.876316   -0.957423
H    -2.319311   -1.383477    0.994703
H    -2.574558    0.320771    0.552376
H    -3.094725   -0.974563   -0.551733
H     2.574558    0.320777    0.552383
H     2.319318   -1.383476    0.994698
H     3.094731   -0.974549   -0.551734
