21
trispiro-202020-nonane[B3LYP/aug-cc-pVTZ]
C     0.000000    0.851770    0.000000
C     0.737655   -0.425885    0.000000
C    -0.737655   -0.425885    0.000000
C     1.836386   -1.060238    0.763078
C     1.836386   -1.060238   -0.763078
C     0.000000    2.120476   -0.763078
C     0.000000    2.120476    0.763078
C    -1.836386   -1.060238   -0.763078
C    -1.836386   -1.060238    0.763078
H     2.551440   -0.422252    1.266347
H     1.641401   -1.998486    1.266347
H     1.641401   -1.998486   -1.266347
H     2.551440   -0.422252   -1.266347
H    -0.910039    2.420738   -1.266347
H     0.910039    2.420738   -1.266347
H     0.910039    2.420738    1.266347
H    -0.910039    2.420738    1.266347
H    -2.551440   -0.422252   -1.266347
H    -1.641401   -1.998486   -1.266347
H    -1.641401   -1.998486    1.266347
H    -2.551440   -0.422252    1.266347
