34
undecan-2-one[B3LYP/aug-cc-pVTZ]
C    -4.806157    0.164946   -0.005623
C    -6.062810   -0.680870    0.015204
C     6.725592   -0.280291   -0.006395
C    -3.487345   -0.589442   -0.010665
C     5.426775    0.524067    0.007880
C    -2.245230    0.293358    0.007034
C     4.172804   -0.350971   -0.004536
C    -0.944153   -0.509724   -0.005659
C     2.867501    0.444990    0.008804
C     0.309146    0.366142    0.008951
C     1.614054   -0.430731   -0.003842
O    -4.857865    1.374419   -0.015761
H    -6.066233   -1.383636   -0.820306
H    -6.941478   -0.043492   -0.036220
H    -6.097895   -1.276478    0.930151
H     6.792162   -0.936999    0.863557
H     6.790716   -0.908018   -0.897593
H     7.599872    0.372101    0.003614
H    -3.487195   -1.243242   -0.890607
H    -3.492921   -1.273880    0.845326
H     5.404779    1.195795   -0.855539
H     5.406736    1.168164    0.892173
H    -2.273858    0.968070   -0.851145
H    -2.275701    0.936898    0.889030
H     4.193680   -0.996496   -0.889181
H     4.195186   -1.023399    0.859786
H    -0.922432   -1.183317    0.857933
H    -0.922105   -1.154301   -0.891131
H     2.847599    1.090299    0.893334
H     2.846263    1.117212   -0.855399
H     0.287614    1.010598    0.893780
H     0.287855    1.038888   -0.854540
H     1.635068   -1.102846    0.860594
H     1.634146   -1.076122   -0.888446
