12
trimethylenecyclopropane[B3LYP/aug-cc-pVTZ]
C     0.000000    0.830500    0.000000
C     0.719234   -0.415250    0.000000
C    -0.719234   -0.415250    0.000000
C     0.000000    2.159401    0.000000
C     1.870096   -1.079700    0.000000
C    -1.870096   -1.079700    0.000000
H    -0.925056    2.719957    0.000000
H     0.925056    2.719957    0.000000
H     2.818080   -0.558856    0.000000
H     1.893024   -2.161100    0.000000
H    -1.893024   -2.161100    0.000000
H    -2.818080   -0.558856    0.000000
