8
urea[B3LYP/aug-cc-pVTZ]
C     0.000000    0.000000    0.141895
O     0.000000    0.000000    1.357923
N     0.000000    1.161700   -0.607409
N     0.000000   -1.161700   -0.607409
H     0.198783    1.990644   -0.072919
H     0.395193    1.143037   -1.532593
H    -0.198783   -1.990644   -0.072919
H    -0.395193   -1.143037   -1.532593
