9
Z-1-chloro-1-propene[B3LYP/aug-cc-pVTZ]
C     0.000000    0.915171    0.000000
C    -1.234906    0.436582    0.000000
C    -1.665685   -0.992435    0.000000
Cl     1.445564   -0.071997    0.000000
H     0.228804    1.968959    0.000000
H    -2.020171    1.186064    0.000000
H    -0.816904   -1.671987    0.000000
H    -2.281387   -1.207498    0.876786
H    -2.281387   -1.207498   -0.876786
