13
urethane[B3LYP/aug-cc-pVTZ]
C     2.562959   -0.246263    0.024431
H     2.684739   -0.856591   -0.869433
H     3.378057    0.477039    0.064926
H     2.630633   -0.894805    0.896772
C     1.233789    0.476855    0.001020
H     1.104781    1.083961    0.900241
H     1.171235    1.127632   -0.877417
O     0.198136   -0.516463   -0.060443
N    -1.408351    1.154815    0.055718
H    -0.750537    1.856650   -0.229457
H    -2.382975    1.377652   -0.044925
C    -1.116122   -0.185256   -0.006501
O    -1.955791   -1.049445    0.017389
