19
valine[B3LYP/aug-cc-pVTZ]
N    -0.204180    1.865921   -0.165122
C    -0.044385    0.433011   -0.462275
C    -1.370928   -0.271392   -0.129443
O    -1.723843   -1.301180   -0.637826
O    -2.103030    0.357938    0.804964
H    -1.646282    1.209604    0.969437
C     1.128185   -0.162775    0.360267
C     2.465222    0.464609   -0.056758
C     1.217327   -1.687377    0.244479
H     0.147500    0.235377   -1.520887
H     0.941461    0.092091    1.408810
H     3.277525    0.032580    0.528053
H     2.673618    0.266976   -1.110595
H     2.508562    1.543790    0.096919
H     0.318428   -2.184121    0.600700
H     1.371984   -1.994000   -0.791577
H     2.062337   -2.049689    0.830873
H     0.683380    2.321499   -0.008696
H    -0.666802    2.353922   -0.921910
