18
Z-1-methylprop-1-enylacetate[B3LYP/aug-cc-pVTZ]
C    -1.951735   -0.180434    0.100405
C    -0.883932    0.542857   -0.210248
C     1.381983   -0.094680    0.182826
C    -2.041959   -1.672002    0.148175
C    -0.803865    2.031933   -0.270242
C     2.547078   -0.777270   -0.480474
O     1.391725    0.406289    1.275264
O     0.290604   -0.118487   -0.630137
H    -2.849211    0.374513    0.346595
H    -2.835495   -2.034166   -0.509960
H    -1.110051   -2.145591   -0.151752
H    -2.289315   -2.012966    1.156589
H    -1.765809    2.473463   -0.017477
H    -0.524541    2.360081   -1.274356
H    -0.054472    2.408994    0.426265
H     2.828171   -0.232808   -1.382252
H     2.270172   -1.786382   -0.783928
H     3.386497   -0.809977    0.206602
