16
Z-1-4-hexadiene[B3LYP/aug-cc-pVTZ]
C    -2.336058    0.040054   -0.754448
H    -3.277485    0.507889   -0.453946
H    -1.772566    0.765717   -1.337617
H    -2.599402   -0.788479   -1.416868
C    -1.586968   -0.461683    0.442081
H    -2.107557   -1.217663    1.022372
C    -0.380120   -0.094692    0.868817
H     0.005574   -0.582736    1.758463
C     0.533363    0.933703    0.270646
H     0.042346    1.473818   -0.542976
H     0.746217    1.697623    1.028760
C     1.855390    0.410014   -0.232532
H     2.574553    1.177611   -0.503227
C     2.197298   -0.864315   -0.374253
H     3.172382   -1.142407   -0.750747
H     1.518518   -1.669861   -0.126075
