15
Z-2-pentene[B3LYP/aug-cc-pVTZ]
C     1.302290    0.615163   -0.139445
C     0.013355    0.809181    0.136131
C     2.074570   -0.668347   -0.088094
C    -2.202655   -0.271676   -0.404781
C    -1.010350   -0.203515    0.558717
H     1.881490    1.484329   -0.436504
H    -0.366648    1.822918    0.039577
H     2.535067   -0.880541   -1.056528
H     1.460917   -1.524351    0.185335
H     2.891800   -0.598640    0.634949
H    -2.954741   -0.977144   -0.048720
H    -1.884282   -0.587950   -1.398923
H    -2.681767    0.703860   -0.505963
H    -1.381230    0.065717    1.553563
H    -0.563862   -1.193034    0.658048
