8
E-2-chloro-2-butenedinitrile[B3LYP/aug-cc-pVTZ]
Cl    -0.219933    1.550529   -0.000002
N    -2.880130   -0.962984    0.000001
N     3.077266   -0.391223    0.000000
C    -0.432054   -0.165225    0.000000
C     0.591544   -1.033696    0.000001
C    -1.783875   -0.609615    0.000001
C     1.955445   -0.655823    0.000001
H     0.372561   -2.093385    0.000003
