13
Z-2-pentenenitrile[B3LYP/aug-cc-pVTZ]
C    -1.766341   -0.115464   -0.079800
N    -2.492129   -1.010435   -0.031960
C    -0.894931    1.009998   -0.149808
H    -1.357106    1.941241   -0.450071
C     0.411013    0.955887    0.131841
H     0.972979    1.879716    0.039002
C     1.185347   -0.249154    0.551313
H     0.526822   -1.114981    0.622590
H     1.581474   -0.068108    1.556020
C     2.357367   -0.548639   -0.394504
H     2.000836   -0.775983   -1.399184
H     3.038423    0.301062   -0.463225
H     2.926753   -1.405678   -0.035660
