12
Z-3-amino-2-4-difluorobut-2-enenitrile[B3LYP/aug-cc-pVTZ]
F     2.712836   -0.183297   -0.382192
F    -0.780636    1.809141   -0.002362
N     0.499090   -1.575311    0.231574
N    -3.035226   -0.748871   -0.138204
C     0.398551   -0.217436    0.121358
C     1.691625    0.542189    0.236949
C    -0.771372    0.445989    0.008802
C    -2.034053   -0.175673   -0.069809
H     1.624059    1.515903   -0.239488
H     1.970850    0.661136    1.285812
H     1.376086   -1.979329   -0.052815
H    -0.316350   -2.131455    0.030091
