14
1-azido-3-chloro-2-propanol[B3LYP/aug-cc-pVTZ]
Cl     2.984399   -0.417879   -0.152987
O     0.545008    1.604346   -0.451726
N    -1.674474   -0.203357   -0.321610
N    -2.891489   -0.320120   -0.222649
N    -4.011018   -0.462784   -0.239944
C     0.486114    0.564884    0.505089
C    -0.961721    0.258054    0.891001
C     1.212507   -0.698086    0.052682
H     0.985966    0.954778    1.392928
H    -1.421537    1.170797    1.275391
H    -0.999608   -0.510498    1.668236
H     1.110587   -1.489064    0.791667
H     0.836499   -1.050422   -0.903648
H     0.010714    1.348290   -1.213192
