14
1-bromo-butane[B3LYP/aug-cc-pVTZ]
C    -3.641893   -0.591266    0.000000
C    -2.496939    0.420603    0.000000
C    -1.117874   -0.250006    0.000000
C     0.000000    0.772896    0.000000
Br     1.788178   -0.077333    0.000000
H    -3.599505   -1.234516    0.880844
H    -4.610970   -0.091293    0.000000
H    -3.599505   -1.234516   -0.880844
H    -2.584638    1.071178    0.874826
H    -2.584638    1.071178   -0.874826
H    -1.021525   -0.894784    0.876074
H    -1.021525   -0.894784   -0.876074
H    -0.011837    1.400411    0.886249
H    -0.011837    1.400411   -0.886249
