14
1-bromo-2-methyl-propane[B3LYP/aug-cc-pVTZ]
C    -1.834533    1.268289   -0.400426
C    -1.834533   -1.268288   -0.400426
C    -0.216545    0.000000    1.098319
C    -1.577154    0.000000    0.414555
Br     1.331761    0.000000   -0.150889
H    -1.161986    1.326133   -1.256561
H    -2.858396    1.279544   -0.775600
H    -1.687919    2.166121    0.202464
H    -1.161987   -1.326133   -1.256561
H    -2.858396   -1.279543   -0.775600
H    -1.687920   -2.166121    0.202463
H    -0.068439   -0.887671    1.705388
H    -0.068439    0.887670    1.705389
H    -2.281566    0.000000    1.257593
