12
1-butene[B3LYP/aug-cc-pVTZ]
C    -1.857174    0.019065   -0.276434
C    -0.721381   -0.297100    0.333323
C     1.726840   -0.243467   -0.291830
C     0.536972    0.517277    0.306749
H    -2.729067   -0.618792   -0.220189
H    -1.956005    0.931088   -0.853592
H    -0.671041   -1.224905    0.898141
H     2.633033    0.362779   -0.261767
H     1.534052   -0.514731   -1.330436
H     1.923869   -1.164107    0.260591
H     0.363340    1.438791   -0.253243
H     0.790277    0.815231    1.329652
