20
1-bromo-hexane[B3LYP/aug-cc-pVTZ]
C    -4.936568    1.465145    0.000000
C    -3.922526    0.322511    0.000000
C    -2.471384    0.804576    0.000000
C    -1.450102   -0.334338    0.000000
C     0.000000    0.164093    0.000000
C     0.985477   -0.987102    0.000000
Br     2.863952   -0.359390    0.000000
H    -4.816817    2.099428    0.880736
H    -5.960401    1.088998    0.000000
H    -4.816817    2.099428   -0.880736
H    -4.090369   -0.313716    0.874123
H    -4.090369   -0.313716   -0.874123
H    -2.302394    1.440928    0.874604
H    -2.302394    1.440928   -0.874604
H    -1.617587   -0.969807   -0.875461
H    -1.617587   -0.969807    0.875461
H     0.175058    0.791780    0.876000
H     0.175058    0.791780   -0.876000
H     0.898455   -1.608448    0.886264
H     0.898455   -1.608448   -0.886264
