26
1-bromo-octane[B3LYP/aug-cc-pVTZ]
C    -6.534030   -0.514996    0.000019
C    -5.302372    0.389014   -0.000013
C    -3.983974   -0.386062    0.000155
C    -2.745486    0.510646   -0.000145
C    -1.428074   -0.265911   -0.000090
C    -0.191349    0.634712   -0.000033
C     1.123907   -0.153976    0.000007
C     2.324734    0.770374    0.000180
Br     4.036420   -0.226015   -0.000020
H    -6.549451   -1.160327    0.880807
H    -7.456740    0.066937   -0.000174
H    -6.549247   -1.160608   -0.880564
H    -5.332736    1.046867    0.873861
H    -5.332634    1.046608   -0.874087
H    -3.953841   -1.044491    0.874820
H    -3.953918   -1.044948   -0.874172
H    -2.776580    1.168716   -0.874892
H    -2.776413    1.169083    0.874338
H    -1.395055   -0.923423   -0.874681
H    -1.395117   -0.923380    0.874535
H    -0.222551    1.291283   -0.875362
H    -0.222632    1.291268    0.875305
H     1.165253   -0.804347   -0.876140
H     1.165131   -0.804516    0.876036
H     2.365848    1.396665   -0.885997
H     2.365863    1.396332    0.886591
