15
1-butanol[B3LYP/aug-cc-pVTZ]
C     2.514552   -0.302534   -0.010159
C     1.228558    0.521535    0.028293
C    -0.036512   -0.336644   -0.027812
C    -1.316665    0.487981    0.016814
O    -2.500646   -0.301127   -0.092060
H     2.565348   -0.993371    0.833797
H     2.575280   -0.895054   -0.925011
H     3.397647    0.336304    0.030805
H     1.214362    1.130960    0.936793
H     1.223025    1.225237   -0.809202
H    -0.039872   -0.939383   -0.939874
H    -0.034575   -1.041035    0.812011
H    -1.343796    1.095071    0.929885
H    -1.352146    1.175054   -0.829661
H    -2.539703   -0.906796    0.654122
