23
1-bromo-heptane[B3LYP/aug-cc-pVTZ]
C     1.764781   -5.617581    0.000000
C     2.028889   -4.112926    0.000000
C     0.750440   -3.274006    0.000000
C     1.007520   -1.766974    0.000000
C    -0.272667   -0.929505    0.000000
C     0.000000    0.579454    0.000000
C    -1.288109    1.377306    0.000000
Br    -0.956194    3.330314    0.000000
H     2.696175   -6.185285    0.000000
H     1.193700   -5.918250    0.880782
H     1.193700   -5.918250   -0.880782
H     2.631895   -3.849152   -0.874055
H     2.631895   -3.849152    0.874055
H     0.146800   -3.538224    0.874765
H     0.146800   -3.538224   -0.874765
H     1.610373   -1.502874   -0.874726
H     1.610373   -1.502874    0.874726
H    -0.875444   -1.190887    0.875500
H    -0.875444   -1.190887   -0.875500
H     0.593789    0.847801    0.876114
H     0.593789    0.847801   -0.876114
H    -1.888361    1.196425   -0.886534
H    -1.888361    1.196425    0.886534
