29
1-butylsulfonylbutane[B3LYP/aug-cc-pVTZ]
C    -4.547650   -1.705638    0.272597
C    -3.795689   -0.553081   -0.390005
C    -2.349515   -0.430093    0.100464
C    -1.615268    0.722413   -0.573309
S     0.037748    1.077404    0.089018
O     0.541910    2.249760   -0.624888
C     1.055947   -0.348493   -0.390800
C     2.496572   -0.170036    0.080449
C     3.378082   -1.358055   -0.315035
C     4.824517   -1.194420    0.147764
O    -0.048573    1.105880    1.548995
H    -4.067320   -2.663473    0.063479
H    -4.581440   -1.582093    1.356437
H    -5.575090   -1.764796   -0.087565
H    -4.320256    0.386228   -0.194738
H    -3.803321   -0.687023   -1.475548
H    -1.826735   -1.371038   -0.089908
H    -2.336575   -0.275264    1.180431
H    -2.130655    1.672755   -0.422484
H    -1.487390    0.579358   -1.646641
H     0.990394   -0.416247   -1.477160
H     0.591980   -1.227121    0.056620
H     2.505188   -0.047615    1.164989
H     2.901550    0.749170   -0.346134
H     3.354143   -1.481736   -1.401693
H     2.960814   -2.276931    0.107216
H     5.277008   -0.300011   -0.284003
H     4.882665   -1.102883    1.233779
H     5.432396   -2.050455   -0.146968
