27
1-butoxybutane[B3LYP/aug-cc-pVTZ]
C     0.000000    4.931161    0.525769
C     0.000000   -4.931161    0.525769
C     0.000000    3.717960   -0.402856
C     0.000000   -3.717960   -0.402856
C     0.000000    2.388987    0.353309
C     0.000000   -2.388987    0.353309
C     0.000000    1.184688   -0.571073
C     0.000000   -1.184688   -0.571073
O     0.000000    0.000000    0.205597
H    -0.880623    4.932775    1.171072
H     0.880623    4.932775    1.171072
H     0.000000    5.864641   -0.038469
H     0.880623   -4.932775    1.171072
H    -0.880623   -4.932775    1.171072
H     0.000000   -5.864641   -0.038469
H    -0.874418    3.763393   -1.058921
H     0.874418    3.763393   -1.058921
H     0.874418   -3.763393   -1.058921
H    -0.874418   -3.763393   -1.058921
H     0.876326    2.331130    1.004232
H    -0.876326    2.331130    1.004232
H    -0.876326   -2.331130    1.004232
H     0.876326   -2.331130    1.004232
H    -0.884669    1.203511   -1.223789
H     0.884669    1.203511   -1.223789
H     0.884669   -1.203511   -1.223789
H    -0.884669   -1.203511   -1.223789
