11
1-chloro-1-cyano-2-isocyanatoethane[B3LYP/aug-cc-pVTZ]
Cl    -0.676413    1.647673   -0.198839
O     2.973312   -0.003864   -0.788694
N     1.171490   -0.909893    0.447772
N    -2.183834   -1.569197   -1.071477
C     0.125081   -0.508516    1.336558
C    -1.098061    0.085661    0.622655
C    -1.695846   -0.827966   -0.341528
C     2.065665   -0.383032   -0.161385
H     0.479121    0.224746    2.062267
H    -0.217303   -1.388512    1.882361
H    -1.843922    0.340978    1.373321
