11
1-chloroallyl-isothiocyanate[B3LYP/aug-cc-pVTZ]
Cl     1.206649    1.711643   -0.227494
S    -3.019563   -0.139639   -0.082460
N    -0.291654   -0.495146    0.196818
C     0.951475    0.047369    0.568780
C     2.117266   -0.819228    0.224719
C     2.032356   -1.986494   -0.395802
C    -1.463636   -0.293893    0.095615
H     0.943371    0.294738    1.629473
H     3.072452   -0.416382    0.534896
H     2.918954   -2.568416   -0.603567
H     1.082018   -2.394155   -0.711641
