10
C2H4N3Cl[B3LYP/aug-cc-pVTZ]
Cl    -1.920947    0.002248    0.086589
N    -0.262504    0.015809   -0.439109
N     0.411868   -1.174015   -0.049153
N     1.602483   -0.955892    0.169301
C     0.539461    1.153832    0.050933
C     1.913135    0.495408    0.023525
H     0.436411    1.995512   -0.626647
H     0.234666    1.446107    1.058692
H     2.588289    0.800194    0.817850
H     2.418220    0.623228   -0.935934
