15
1-chloro-2-methyl-benzene[B3LYP/aug-cc-pVTZ]
C     1.683448   -1.663575    0.000000
C     2.220125   -0.382943    0.000000
C     0.305726   -1.835687    0.000000
C     1.373807    0.717619    0.000000
C    -0.573870   -0.751190    0.000000
C     0.000000    0.522425    0.000000
C    -2.061411   -0.960930    0.000000
Cl    -1.036566    1.943162    0.000000
H     2.334268   -2.527315    0.000000
H     3.291363   -0.235053    0.000000
H    -0.108141   -2.835976    0.000000
H     1.769429    1.722783    0.000000
H    -2.526446   -0.504646    0.875379
H    -2.526446   -0.504646   -0.875379
H    -2.299351   -2.023197    0.000000
