7
1-cyano-1-bromo-ethene[B3LYP/aug-cc-pVTZ]
Br    -0.528269   -1.001303    0.000000
N     2.548987    1.195833    0.000000
C     0.000000    0.834859    0.000000
C     1.407533    1.038004    0.000000
C    -0.884708    1.825293    0.000000
H    -0.543534    2.851220    0.000000
H    -1.946908    1.634614    0.000000
