17
1-chloro-pentane[B3LYP/aug-cc-pVTZ]
C     3.289623   -0.683161    0.151762
C     2.227943    0.295481   -0.346814
C     0.848628    0.047344    0.264611
C    -0.212368    1.027510   -0.233040
C    -1.589905    0.838545    0.373045
Cl    -2.363950   -0.734686   -0.125608
H     3.018596   -1.713424   -0.086887
H     3.409472   -0.616939    1.235067
H     4.260930   -0.481964   -0.301814
H     2.544221    1.319704   -0.126280
H     2.154297    0.228978   -1.436338
H     0.918418    0.115557    1.355563
H     0.530695   -0.973458    0.040898
H    -0.289842    0.977813   -1.321766
H     0.095882    2.051249    0.008963
H    -1.558172    0.815998    1.459589
H    -2.280876    1.611830    0.050962
