11
1-chloropropane[B3LYP/aug-cc-pVTZ]
C    -1.818641   -0.717279    0.144096
C    -1.150092    0.559242   -0.358350
C     0.172758    0.883165    0.310034
Cl     1.464599   -0.345613   -0.067396
H    -2.003786   -0.667711    1.219027
H    -2.776988   -0.872261   -0.351812
H    -1.195361   -1.589705   -0.048379
H    -1.001591    0.509688   -1.438752
H    -1.806916    1.416179   -0.174399
H     0.089223    0.894421    1.394122
H     0.573090    1.834040   -0.028754
