19
2-methoxyethoxyethane[B3LYP/aug-cc-pVTZ]
C     3.132473    0.770972    0.253731
C    -3.489777    0.102524    0.120232
C     2.463060   -0.488339   -0.280821
C    -1.182999   -0.374018    0.214782
C     0.153763    0.132123   -0.293733
O    -2.191518    0.483645   -0.283274
O     1.158560   -0.710687    0.238596
H     4.155816    0.833282   -0.120982
H     2.611059    1.675762   -0.058785
H     3.167460    0.751844    1.343340
H    -4.186566    0.819251   -0.309463
H    -3.589678    0.116485    1.212175
H    -3.741954   -0.902048   -0.239929
H     3.038609   -1.367952    0.008601
H     2.422491   -0.463753   -1.377404
H    -1.184178   -0.379223    1.312052
H    -1.345961   -1.404224   -0.125418
H     0.289010    1.172957    0.018531
H     0.168426    0.104380   -1.390449
