24
1-ethylnapthalene[B3LYP/aug-cc-pVTZ]
C     2.843382   -0.911793    0.095853
C     1.865295   -1.900259   -0.134234
C    -0.579750    2.511077    0.033711
C     2.473262    0.403278    0.193327
C     0.543571   -1.555480   -0.257841
C     0.733917    2.152826    0.165181
C    -1.562211    1.527220   -0.196166
C     1.117464    0.793908    0.069366
C     0.119466   -0.205263   -0.160726
C    -1.248770    0.190590   -0.290811
C    -2.802522   -1.523090    0.785080
C    -2.351636   -0.819638   -0.504417
H     3.882886   -1.194986    0.192496
H     2.160956   -2.937871   -0.214193
H    -0.872273    3.550458    0.101606
H     3.218207    1.169736    0.366401
H    -0.186369   -2.331752   -0.434482
H     1.496318    2.901125    0.340027
H    -2.595290    1.834475   -0.303229
H    -1.982937   -2.067541    1.253974
H    -3.604229   -2.233272    0.576827
H    -3.173490   -0.797867    1.510083
H    -3.209005   -0.305295   -0.941733
H    -2.043584   -1.567462   -1.237707
