20
1-ethylsulfonylpropane[B3LYP/aug-cc-pVTZ]
C    -2.143446   -2.929295    0.000000
C     1.157418    2.955149    0.000000
C    -0.838198   -2.133417    0.000000
C    -0.055932    2.033897    0.000000
C    -1.094835   -0.628266    0.000000
O     1.157418    0.026179    1.262499
O     1.157418    0.026179   -1.262499
S     0.468746    0.293929    0.000000
H    -1.938473   -3.999896    0.000000
H    -2.746355   -2.706824    0.882228
H    -2.746355   -2.706824   -0.882228
H     0.824711    3.992976    0.000000
H     1.770380    2.790531    0.884210
H     1.770380    2.790531   -0.884210
H    -0.242657   -2.391528   -0.876212
H    -0.242657   -2.391528    0.876212
H    -0.670671    2.165871   -0.889878
H    -0.670671    2.165871    0.889878
H    -1.638152   -0.309656   -0.890168
H    -1.638152   -0.309656    0.890168
