24
1-heptanol[B3LYP/aug-cc-pVTZ]
C     4.455953    0.270233    0.013128
C     3.156486   -0.532657   -0.014810
C     1.903604    0.343655    0.011250
C     0.597863   -0.451106   -0.015679
C    -0.653922    0.427229    0.009040
C    -1.958782   -0.370300   -0.022500
C    -3.196862    0.516964    0.008447
O    -4.418615   -0.215524   -0.077873
H     4.523173    0.941403   -0.845601
H     5.329459   -0.382837   -0.007953
H     4.521716    0.882668    0.914818
H     3.133472   -1.218292    0.837586
H     3.136119   -1.162088   -0.909563
H     1.926908    1.029567   -0.842248
H     1.924665    0.974859    0.906112
H     0.577344   -1.082187   -0.910093
H     0.574572   -1.136132    0.838283
H    -0.629327    1.112199   -0.844708
H    -0.633266    1.057787    0.903988
H    -1.987895   -1.054978    0.832841
H    -1.997124   -0.992014   -0.920763
H    -3.202967    1.185677   -0.853276
H    -3.189897    1.145038    0.907556
H    -4.484069   -0.800583    0.682753
