21
1-hexanol[B3LYP/aug-cc-pVTZ]
C     3.803979   -0.333546   -0.007335
C     2.523952    0.499934    0.021358
C     1.251148   -0.346744   -0.014028
C    -0.035517    0.479205    0.013309
C    -1.306448   -0.371112   -0.025050
C    -2.580107    0.464187    0.009234
O    -3.770500   -0.317449   -0.083397
H     4.692588    0.298478    0.020787
H     3.852231   -1.011503    0.847324
H     3.858181   -0.941543   -0.912719
H     2.519811    1.190707   -0.827105
H     2.515487    1.124471    0.919783
H     1.255049   -1.037842    0.835498
H     1.259420   -0.972533   -0.912499
H    -0.037623    1.169441   -0.836563
H    -0.042076    1.104927    0.911889
H    -1.308490   -1.061289    0.826320
H    -1.317911   -0.988628   -0.926931
H    -2.600079    1.086487    0.912165
H    -2.612653    1.137348   -0.848433
H    -3.811971   -0.910475    0.672738
