19
1-heptyne[B3LYP/aug-cc-pVTZ]
C     2.257879    3.177876    0.000000
C     1.939719    2.020940    0.000000
C    -2.330524   -2.718125    0.000000
C     1.527217    0.622766    0.000000
C    -1.925506   -1.245234    0.000000
C     0.000000    0.434858    0.000000
C    -0.410473   -1.036234    0.000000
H     2.546918    4.198732    0.000000
H    -3.415229   -2.832921    0.000000
H    -1.942770   -3.234004    0.880832
H    -1.942770   -3.234004   -0.880832
H     1.956087    0.124043   -0.874253
H     1.956087    0.124043    0.874253
H    -2.356942   -0.748038   -0.873782
H    -2.356942   -0.748038    0.873782
H    -0.418718    0.938863    0.874266
H    -0.418718    0.938863   -0.874266
H     0.021563   -1.534311   -0.874638
H     0.021563   -1.534311    0.874638
