22
hexan-1-amine[B3LYP/aug-cc-pVTZ]
C     3.802935   -0.490610    0.000000
C     2.559112    0.396474    0.000000
C     1.251338   -0.396094    0.000000
C     0.000000    0.482704    0.000000
C    -1.308018   -0.309699    0.000000
C    -2.556134    0.578683    0.000000
N    -3.845546   -0.114188    0.000000
H     4.717679    0.103723    0.000000
H     3.826861   -1.135787    0.880692
H     3.826861   -1.135787   -0.880692
H     2.580491    1.054451    0.873988
H     2.580491    1.054451   -0.873988
H     1.230295   -1.055016    0.874553
H     1.230295   -1.055016   -0.874553
H     0.022835    1.141535   -0.874500
H     0.022835    1.141535    0.874500
H    -1.338505   -0.966435    0.876192
H    -1.338505   -0.966435   -0.876192
H    -2.533944    1.235791    0.873348
H    -2.533944    1.235791   -0.873348
H    -3.935161   -0.711119    0.813635
H    -3.935161   -0.711119   -0.813635
