7
1-hydroxy-1-3-dibutyne[B3LYP/aug-cc-pVTZ]
O    -2.416628   -0.098841   -0.000028
C     0.087033   -0.011100    0.000005
C    -1.117057   -0.002424   -0.000010
C     1.449836    0.001422    0.000013
C     2.655112    0.011669    0.000023
H    -2.832487    0.773856    0.000005
H     3.715965    0.019465    0.000027
