16
1-hexyne[B3LYP/aug-cc-pVTZ]
C    -2.312498   -2.277578    0.000000
C    -1.228339   -1.763422    0.000000
C     1.311092    2.604422    0.000000
C     0.077794   -1.116147    0.000000
C     1.378741    1.078321    0.000000
C     0.000000    0.420250    0.000000
H    -3.268709   -2.737512    0.000000
H     2.308010    3.046780    0.000000
H     0.783276    2.975425    0.880761
H     0.783276    2.975425   -0.880761
H     0.642365   -1.452734    0.874593
H     0.642365   -1.452734   -0.874593
H     1.941609    0.738131   -0.874478
H     1.941609    0.738131    0.874478
H    -0.567271    0.747005    0.874792
H    -0.567271    0.747005   -0.874792
