13
1-isocyanato-1-1-2-ethanetriol[B3LYP/aug-cc-pVTZ]
O    -0.307443   -0.870123   -1.164144
O    -0.307406   -0.869880    1.164290
O    -2.627780    0.100056    0.000029
O     3.229423    0.053522    0.000030
N     0.941114    0.662461   -0.000117
C    -0.281383   -0.078177   -0.000011
C    -1.450502    0.910137   -0.000090
C     2.088626    0.280911   -0.000031
H    -1.215065   -1.172916   -1.295790
H    -1.215054   -1.172515    1.296121
H    -3.410450    0.656719   -0.000033
H    -1.390992    1.532924    0.893801
H    -1.391037    1.532728   -0.894121
