24
1-isopropyl-4-methyl-benzene[B3LYP/aug-cc-pVTZ]
C     1.600593    1.193755    0.000030
C     1.362015   -1.179084   -0.000623
C     0.214960    1.329237    0.000273
C    -0.018274   -1.043342   -0.000385
C     2.201025   -0.061784   -0.000327
C    -0.622831    0.217224    0.000106
C     3.699139   -0.219727    0.000340
C    -2.774529   -0.208537    1.265773
C    -2.774681   -0.207345   -1.265700
C    -2.132337    0.379225    0.000275
H     2.220883    2.081689    0.000055
H     1.797012   -2.171508   -0.001121
H    -0.219605    2.321673    0.000499
H    -0.631041   -1.935901   -0.000690
H     4.039551   -0.780061   -0.872912
H     4.199664    0.747760   -0.008810
H     4.040365   -0.763522    0.883764
H    -2.623372   -1.288055    1.321226
H    -3.850322   -0.023817    1.272330
H    -2.347796    0.233736    2.166427
H    -2.348059    0.235781   -2.165987
H    -3.850477   -0.022626   -1.271955
H    -2.623518   -1.286809   -1.322188
H    -2.333765    1.453939    0.000792
