21
1-hydroxy-3-4-dihydroquinolin-2-one[B3LYP/aug-cc-pVTZ]
C     3.077395    0.196598   -0.111658
C     2.666570   -1.128501   -0.161156
C     2.129143    1.205688    0.034852
C     1.317412   -1.453527   -0.078360
C     0.776833    0.911753    0.133669
C     0.382349   -0.432412    0.060180
C    -2.008325    0.164976   -0.109593
C    -0.286188    1.954073    0.363802
C    -1.588515    1.593777   -0.354663
N    -0.990799   -0.704017    0.145273
O    -3.161157   -0.254175   -0.157240
O    -1.361171   -2.042198    0.243835
H     4.126728    0.446250   -0.182912
H     3.395360   -1.919947   -0.269911
H     2.445503    2.240189    0.082160
H     0.987299   -2.479262   -0.120828
H    -0.484242    2.028309    1.438806
H     0.064034    2.934551    0.042685
H    -1.473721    1.707651   -1.437370
H    -2.413797    2.234873   -0.051575
H    -2.332996   -1.968059    0.126836
