12
1-isocyanato-2-isothiocyanatoethane[B3LYP/aug-cc-pVTZ]
S    -3.986894   -0.049708   -0.000087
O     4.775654   -0.113191   -0.000147
N    -1.218888   -0.119564    0.000118
N     2.439468    0.263192    0.000069
C     0.039669    0.560667    0.000057
C     1.185169   -0.449890    0.000115
C    -2.404278   -0.042911    0.000025
C     3.612272    0.010529   -0.000044
H     0.112187    1.198876   -0.883098
H     0.112207    1.198992    0.883127
H     1.109813   -1.086449   -0.883060
H     1.109821   -1.086333    0.883374
