10
1-hydroxyguanidine[B3LYP/aug-cc-pVTZ]
O     1.787242    0.003282   -0.184204
N     0.624265   -0.739187    0.193069
N    -1.728663   -0.614242   -0.065776
N    -0.477517    1.325874    0.083465
C    -0.595184   -0.035554    0.023160
H     2.301487    0.044235    0.629806
H     0.630705   -1.583507   -0.364470
H    -1.653756   -1.625649   -0.018118
H    -1.320486    1.821828   -0.150356
H     0.388624    1.723041   -0.237498
