14
1-methoxybut-2-yne[B3LYP/aug-cc-pVTZ]
C    -1.854995    0.059212    0.000286
C    -0.682965    0.318398    0.000121
C    -3.272404   -0.269344   -0.000016
C     2.908916   -0.231355   -0.000182
C     0.731823    0.658966    0.000000
O     1.525377   -0.520062    0.000268
H    -3.785213    0.196056   -0.843401
H    -3.757047    0.068458    0.917494
H    -3.416982   -1.348358   -0.076266
H     3.201339    0.338694    0.890135
H     3.200880    0.338009   -0.891089
H     3.434078   -1.183772    0.000063
H     0.968850    1.268307    0.883485
H     0.968823    1.267833   -0.883814
