10
1-methyl-1H-tetrazole[B3LYP/aug-cc-pVTZ]
C    -0.115632    2.015647    0.000000
H    -0.652547    2.342305    0.887714
H    -0.652547    2.342305   -0.887714
H     0.882425    2.445220    0.000000
N     0.000000    0.569086    0.000000
N    -1.090343   -0.221557    0.000000
N    -0.666004   -1.437578    0.000000
H     2.096573    0.126082    0.000000
C     1.080585   -0.227007    0.000000
N     0.690116   -1.479630    0.000000
