21
1-methyl-4-methylsulfonylbenzene[B3LYP/aug-cc-pVTZ]
C    -1.656245   -2.355698    0.000000
S     0.088738   -1.905377    0.000000
O     0.654560   -2.357841    1.267005
O     0.654560   -2.357841   -1.267005
C     0.080334   -0.110707    0.000000
C     0.087584    0.574569   -1.208898
C     0.087584    1.962499   -1.199749
C     0.081470    2.677518    0.000000
C     0.055105    4.182111    0.000000
C     0.087584    1.962499    1.199749
C     0.087584    0.574569    1.208898
H    -2.123209   -1.961947   -0.898464
H    -1.678863   -3.443534    0.000000
H    -2.123209   -1.961947    0.898464
H     0.119138    0.024829   -2.138786
H     0.104503    2.498591   -2.139961
H     0.546532    4.588743    0.883175
H    -0.973845    4.550449    0.000000
H     0.546532    4.588743   -0.883175
H     0.104503    2.498591    2.139961
H     0.119138    0.024829    2.138786
