17
1-methyl-3-nitro-benzene[B3LYP/aug-cc-pVTZ]
C    -2.057620   -0.570893    0.000000
C    -1.349473   -1.765667    0.000000
C    -1.385262    0.643953    0.000000
C     0.722393   -0.566463    0.000000
C     0.048829   -1.783697    0.000000
C     0.000000    0.619586    0.000000
C     0.801538   -3.087682    0.000000
N     0.736402    1.899710    0.000000
O     0.081540    2.932000    0.000000
O     1.958229    1.853894    0.000000
H    -3.138638   -0.583862    0.000000
H    -1.890749   -2.703493    0.000000
H    -1.907623    1.587184    0.000000
H     1.800839   -0.524533    0.000000
H     1.877726   -2.925062    0.000000
H     0.551524   -3.685088    0.878569
H     0.551524   -3.685088   -0.878569
