13
1-methyl-1H-pyrrole[B3LYP/aug-cc-pVTZ]
C    -0.016408   -1.487716    0.709392
C    -0.016408   -1.487716   -0.709392
C    -0.016408   -0.174043    1.115752
C    -0.016408   -0.174043   -1.115752
C     0.066679    2.069240    0.000000
N    -0.023110    0.623459    0.000000
H    -0.026850   -2.347321    1.357432
H    -0.026850   -2.347321   -1.357432
H    -0.017376    0.257756    2.101616
H    -0.017376    0.257756   -2.101616
H    -0.430683    2.466938    0.882657
H     1.105307    2.406717    0.000000
H    -0.430683    2.466938   -0.882657
