12
1-methyl-1H-imidazole[B3LYP/aug-cc-pVTZ]
C     0.645337   -1.483107    0.000000
C     1.115639   -0.197648    0.000000
C    -1.077575   -0.225768    0.000000
C    -0.022919    2.058005    0.000000
N    -0.726800   -1.489807    0.000000
N     0.000000    0.608310    0.000000
H     1.214722   -2.396921    0.000000
H     2.111503    0.208433    0.000000
H    -2.087758    0.150798    0.000000
H     0.471699    2.452768    0.887470
H     0.471699    2.452768   -0.887470
H    -1.057157    2.393731    0.000000
