11
1-methylsulfanylethanone[B3LYP/aug-cc-pVTZ]
C     0.754145    0.274218   -0.000001
C     2.080251   -0.448669    0.000000
C    -2.006474    0.397153    0.000001
O     0.648332    1.474901    0.000000
S    -0.661464   -0.824798    0.000000
H     1.966836   -1.530536   -0.000035
H     2.644386   -0.141223    0.880822
H     2.644418   -0.141166   -0.880780
H    -1.944496    1.019312    0.888116
H    -2.937384   -0.164322    0.000020
H    -1.944520    1.019289   -0.888133
