21
1-methylnapthalene[B3LYP/aug-cc-pVTZ]
C    -2.758791   -0.172612    0.000000
C    -2.313124    1.163832    0.000000
C     1.829384   -1.714992    0.000000
C    -1.848501   -1.196478    0.000000
C    -0.971197    1.448460    0.000000
C     0.490238   -1.990790    0.000000
C     2.279504   -0.378590    0.000000
C    -0.456728   -0.938145    0.000000
C     0.000000    0.416294    0.000000
C     1.404403    0.681449    0.000000
C     1.923415    2.094613    0.000000
H    -3.819371   -0.385993    0.000000
H    -3.035349    1.969463    0.000000
H     2.552742   -2.519609    0.000000
H    -2.183645   -2.226203    0.000000
H    -0.648971    2.479854    0.000000
H     0.135898   -3.013788    0.000000
H     3.344718   -0.184205    0.000000
H     1.585124    2.649218    0.878154
H     3.012098    2.103795    0.000000
H     1.585124    2.649218   -0.878154
