13
1-nitropropane[B3LYP/aug-cc-pVTZ]
C    -2.640949   -0.019049    0.026517
C    -1.209042    0.058303   -0.500284
C    -0.194938   -0.085420    0.631445
N     1.205024   -0.003386    0.081039
O     1.765014   -1.053167   -0.189400
O     1.672267    1.111046   -0.088501
H    -2.833745   -0.973366    0.519100
H    -2.844646    0.776897    0.744558
H    -3.353672    0.081711   -0.791461
H    -1.043315    1.011913   -1.003038
H    -1.035929   -0.731717   -1.232936
H    -0.270535   -1.051673    1.121825
H    -0.282005    0.723902    1.351821
