16
1-nitrobutane[B3LYP/aug-cc-pVTZ]
C     0.536731    3.223064    0.000000
C    -0.454928    2.061221    0.000000
C     0.239825    0.697977    0.000000
C    -0.768764   -0.447146    0.000000
N    -0.044489   -1.768093    0.000000
O     0.239825   -2.250342    1.084249
O     0.239825   -2.250342   -1.084249
H     0.018030    4.181913    0.000000
H     1.179997    3.192827    0.881142
H     1.179997    3.192827   -0.881142
H    -1.106167    2.136482    0.875255
H    -1.106167    2.136482   -0.875255
H     0.880107    0.607526   -0.879899
H     0.880107    0.607526    0.879899
H    -1.384437   -0.442080    0.895216
H    -1.384437   -0.442080   -0.895216
