13
1-nitrosoimidazolidine-2-thione[B3LYP/aug-cc-pVTZ]
S    -2.085780   -0.900716    0.006105
O     2.215947   -1.569659    0.000507
N     0.569237   -0.210430    0.014654
N    -0.824348    1.471103   -0.076104
N     1.006426   -1.480170    0.031513
C    -0.797846    0.120492   -0.016313
C     1.454352    0.955921   -0.068349
C     0.468196    2.125120    0.088754
H    -1.707844    1.945974   -0.009085
H     1.968507    0.956565   -1.029568
H     2.206495    0.910570    0.715423
H     0.550123    2.589299    1.074075
H     0.620197    2.893610   -0.667587
