13
1-nitrosopyrazolidin-3-one[B3LYP/aug-cc-pVTZ]
O     2.708104   -0.570601   -0.088239
O    -2.779924    0.006037   -0.197353
N    -0.704809   -0.238358    0.294109
N     0.460380   -0.985720    0.109260
N    -1.836329   -0.763921   -0.182698
C    -0.379980    1.203560    0.320132
C     1.049525    1.244702   -0.232188
C     1.565924   -0.183314   -0.071158
H    -0.441868    1.572185    1.343414
H    -1.126052    1.719833   -0.277729
H     1.701720    1.927919    0.304039
H     1.078298    1.509182   -1.289948
H     0.514950   -1.886298    0.559549
