27
1-octanol[B3LYP/aug-cc-pVTZ]
C     5.089909   -0.352288   -0.006234
C     3.812557    0.485486    0.017342
C     2.536468   -0.356683   -0.009704
C     1.252161    0.472558    0.012261
C    -0.022805   -0.371121   -0.013333
C    -1.306858    0.459456    0.007688
C    -2.580564   -0.387028   -0.021920
C    -3.851423    0.452738    0.005891
O    -5.044544   -0.325727   -0.078454
H     5.140854   -0.967918   -0.906694
H     5.136911   -1.023546    0.853797
H     5.980865    0.276784    0.015618
H     3.809761    1.169734   -0.836459
H     3.807307    1.117177    0.910784
H     2.542544   -0.990137   -0.903143
H     2.539557   -1.041269    0.845242
H     1.249543    1.155909   -0.843424
H     1.247470    1.106707    0.905111
H    -0.018787   -1.005273   -0.905757
H    -0.021131   -1.053901    0.842702
H    -1.307512    1.142029   -0.848333
H    -1.310614    1.093278    0.900561
H    -2.584132   -1.069525    0.835632
H    -2.594832   -1.012605   -0.918195
H    -3.868468    1.083342    0.903101
H    -3.882554    1.118124   -0.857873
H    -5.087108   -0.911803    0.683019
