13
1-propanamine[B3LYP/aug-cc-pVTZ]
C     1.426873    1.298590    0.000000
C     0.000000    0.751500    0.000000
C    -0.052657   -0.779459    0.000000
N    -1.385423   -1.383272    0.000000
H     1.978422    0.962964    0.880677
H     1.978422    0.962964   -0.880677
H     1.436602    2.389035    0.000000
H    -0.539820    1.125120   -0.875744
H    -0.539820    1.125120    0.875744
H     0.483988   -1.159679    0.873422
H     0.483988   -1.159679   -0.873422
H    -1.914561   -1.093363   -0.813803
H    -1.914561   -1.093363    0.813803
