21
1-propoxypropane[B3LYP/aug-cc-pVTZ]
C     0.000000    3.710922   -0.232233
C     0.000000   -3.710922   -0.232233
C     0.000000    2.389208    0.533807
C     0.000000   -2.389208    0.533807
C     0.000000    1.184713   -0.390496
C     0.000000   -1.184713   -0.390496
O     0.000000    0.000000    0.385340
H    -0.881297    3.802170   -0.870295
H     0.000000    4.559288    0.452278
H     0.881297    3.802170   -0.870295
H     0.881297   -3.802170   -0.870295
H     0.000000   -4.559288    0.452278
H    -0.881297   -3.802170   -0.870295
H    -0.875832    2.330147    1.183540
H     0.875832    2.330147    1.183540
H     0.875832   -2.330147    1.183540
H    -0.875832   -2.330147    1.183540
H    -0.884755    1.205018   -1.043297
H     0.884755    1.205018   -1.043297
H     0.884755   -1.205018   -1.043297
H    -0.884755   -1.205018   -1.043297
