21
1-propylsulfanylpropane[B3LYP/aug-cc-pVTZ]
C     0.000000    3.930707   -0.592405
C     0.000000   -3.930707   -0.592405
C     0.000000    2.732696    0.357453
C     0.000000   -2.732696    0.357453
C     0.000000    1.402662   -0.390073
C     0.000000   -1.402662   -0.390073
S     0.000000    0.000000    0.786742
H    -0.881478    3.925924   -1.236374
H     0.000000    4.869546   -0.037529
H     0.881478    3.925924   -1.236374
H     0.881478   -3.925924   -1.236374
H     0.000000   -4.869546   -0.037529
H    -0.881478   -3.925924   -1.236374
H    -0.875086    2.778860    1.009600
H     0.875086    2.778860    1.009600
H     0.875086   -2.778860    1.009600
H    -0.875086   -2.778860    1.009600
H    -0.883620    1.324451   -1.026352
H     0.883620    1.324451   -1.026352
H     0.883620   -1.324451   -1.026352
H    -0.883620   -1.324451   -1.026352
