15
1-pentene[B3LYP/aug-cc-pVTZ]
C     2.480915   -0.213181   -0.298890
C     1.414749    0.338000    0.268186
C    -2.425591   -0.196397   -0.076523
C     0.075276   -0.316078    0.421811
C    -1.056864    0.450771   -0.277621
H     3.419178    0.318761   -0.382304
H     2.453489   -1.220352   -0.698261
H     1.492545    1.352012    0.652650
H    -2.441485   -1.215257   -0.468708
H    -3.209396    0.366453   -0.584990
H    -2.686714   -0.246940    0.982557
H     0.119287   -1.338660    0.037811
H    -0.166785   -0.392388    1.488258
H    -0.832514    0.519273   -1.344984
H    -1.078509    1.478406    0.096191
