20
1-acetoxyethyl-acetate[B3LYP/aug-cc-pVTZ]
C     1.958541   -0.478093    0.193954
C    -1.985911   -0.370129    0.044281
C     3.315328   -0.651679   -0.427177
C    -2.706370   -1.406200   -0.772082
C    -0.282027    2.350782   -0.151313
C     0.025654    0.906381    0.152375
O     1.466249   -1.192700    1.024364
O    -2.348571    0.063105    1.107404
O     1.336474    0.624435   -0.316945
O    -0.847020    0.027067   -0.577278
H     3.206350   -0.834642   -1.496483
H     3.901786    0.259171   -0.311364
H     3.823877   -1.488732    0.040209
H    -2.793777   -1.084287   -1.808678
H    -2.130275   -2.332268   -0.762710
H    -3.688403   -1.585106   -0.345883
H     0.418059    2.997677    0.375816
H    -1.291702    2.583448    0.181303
H    -0.200399    2.536528   -1.221464
H    -0.053858    0.666591    1.208658
