8
1-1-dichloro-2-2-2-trifluoroethane[B3LYP/aug-cc-pVTZ]
C     0.566910   -0.338873    0.000000
C    -0.170872    1.010509    0.000000
H     1.633086   -0.144099    0.000000
Cl     0.182082   -1.256529    1.476575
Cl     0.182082   -1.256529   -1.476575
F    -1.497512    0.873510    0.000000
F     0.182082    1.720816    1.083344
F     0.182082    1.720816   -1.083344
