15
1-pyrazin-2-ylethanone[B3LYP/aug-cc-pVTZ]
C     0.787546   -2.366357    0.000000
C    -0.561033   -2.023230    0.000000
C     1.353155   -0.175015    0.000000
C     0.000000    0.175622    0.000000
C    -0.407656    1.626191    0.000000
C    -1.879880    1.940275    0.000000
N     1.749484   -1.444574    0.000000
N    -0.957273   -0.754759    0.000000
O     0.445137    2.489136    0.000000
H     1.096738   -3.404743    0.000000
H    -1.330829   -2.785557    0.000000
H     2.112882    0.594562    0.000000
H    -2.362568    1.497437    0.871986
H    -2.362568    1.497437   -0.871986
H    -2.013020    3.018193    0.000000
