8
1-1-dichloro-1-fluoroethane[B3LYP/aug-cc-pVTZ]
C     0.016027    0.345002    0.000000
C    -1.158543    1.289602    0.000000
F     1.179679    1.042816    0.000000
Cl     0.016027   -0.698667    1.468731
Cl     0.016027   -0.698667   -1.468731
H    -2.090468    0.731884    0.000000
H    -1.108226    1.914914    0.889721
H    -1.108226    1.914914   -0.889721
