14
1-1-dichloro-3-3-dimethylurea[B3LYP/aug-cc-pVTZ]
Cl    -2.158879   -0.834991    0.460362
Cl    -0.993288    1.532997   -0.682534
O     0.277220   -1.678178   -0.719199
N    -0.722342    0.149580    0.402406
N     1.607764   -0.059256    0.184479
C     0.425703   -0.637266   -0.128512
C     2.825179   -0.632336   -0.375066
C     1.787743    1.109351    1.035518
H     3.457133   -1.029550    0.422266
H     2.565217   -1.434482   -1.056315
H     3.383450    0.138196   -0.910345
H     2.037010    1.992083    0.442264
H     2.608475    0.914416    1.727449
H     0.888095    1.307890    1.605352
