8
1-1-dichloro-tetrafluoroethane[B3LYP/aug-cc-pVTZ]
C     0.396947   -0.334365    0.000000
C    -0.354044    1.033767    0.000000
F     1.717331   -0.069343    0.000000
Cl    -0.012320   -1.251697    1.466556
Cl    -0.012320   -1.251697   -1.466556
F    -1.674751    0.856796    0.000000
F    -0.012320    1.737455    1.082744
F    -0.012320    1.737455   -1.082744
