10
1-1-difluoro-2-2-ethanediol[B3LYP/aug-cc-pVTZ]
F     0.936726   -0.752395    1.002357
F     1.646645    0.548458   -0.624816
O    -1.587352   -0.834466   -0.382371
O    -0.934596    1.174393    0.623606
C    -0.691510    0.252835   -0.394390
C     0.702183   -0.374100   -0.292984
H    -0.754108    0.816515   -1.328274
H     0.817745   -1.249022   -0.931294
H    -2.484848   -0.486276   -0.414125
H    -0.717580    0.762386    1.470180
