10
1-1-difluoro-2-isothiocyanatoethane[B3LYP/aug-cc-pVTZ]
S     3.207011    0.103485   -0.057042
F    -1.915460    1.328253   -0.160483
F    -3.079188   -0.540242   -0.097326
N     0.482209   -0.239691    0.285694
C    -1.923576    0.054593    0.324835
C    -0.750694   -0.732182   -0.236127
C     1.650101   -0.112516    0.094338
H    -1.934452    0.106448    1.414038
H    -0.774486   -0.657000   -1.325535
H    -0.881854   -1.778836    0.046326
