10
1-1-difluoro-1-hydroperoxyethane[B3LYP/aug-cc-pVTZ]
F    -0.357644   -0.471312    1.292576
F    -1.367380   -0.721561   -0.632011
O     0.767788   -0.495627   -0.659306
O     1.909998    0.165753   -0.077280
C    -0.382758   -0.035679   -0.006307
C    -0.624405    1.447497   -0.059329
H     2.203516   -0.500296    0.562031
H    -0.689198    1.760727   -1.098748
H    -1.559522    1.670655    0.449572
H     0.191108    1.972855    0.428559
