8
1-1-difluoroethane[B3LYP/aug-cc-pVTZ]
C     0.898943    1.042679    0.000000
C    -0.321603    0.166943    0.000000
F    -0.321603   -0.652153    1.102135
F    -0.321603   -0.652153   -1.102135
H     1.793325    0.421274    0.000000
H     0.899762    1.674835   -0.886681
H     0.899762    1.674835    0.886681
H    -1.268028    0.710080    0.000000
