10
1-1-dithiocyanatoethene[B3LYP/aug-cc-pVTZ]
S     0.913405   -0.731150   -0.602876
S    -1.659560    0.749648   -0.498267
N     3.513666   -0.356225    0.501355
N    -2.753361   -1.506382    0.868888
C     0.061580    0.725895    0.003060
C     2.453147   -0.497661    0.065289
C    -2.270244   -0.603474    0.334802
C     0.589938    1.764744    0.634480
H     1.649607    1.825737    0.840445
H    -0.039790    2.579515    0.960377
