8
1-1-1-2-tetrafluorochloroethane[B3LYP/aug-cc-pVTZ]
C     0.451706    0.483657   -0.467135
C    -0.861674   -0.168523   -0.001224
H     0.454491    0.558887   -1.551837
F     0.530176    1.727520    0.073771
Cl     1.858333   -0.488147    0.023923
F    -0.920875   -0.298900    1.324534
F    -1.892087    0.597920   -0.396345
F    -1.004585   -1.376672   -0.562482
