11
1-1-1-trifluoropropane[B3LYP/aug-cc-pVTZ]
C    -1.755788   -1.135628    0.000000
C    -1.135780    0.259439    0.000000
C     0.373557    0.244819    0.000000
F     0.879802   -0.382880    1.085643
F     0.879802    1.498257    0.000000
F     0.879802   -0.382880   -1.085643
H    -1.459013   -1.700292    0.882744
H    -2.842020   -1.057015    0.000000
H    -1.459013   -1.700292   -0.882744
H    -1.443277    0.826675    0.878962
H    -1.443277    0.826675   -0.878962
