11
1-1-1-tribromopropane[B3LYP/aug-cc-pVTZ]
C     2.132498    1.845617    0.000000
C     0.610943    1.726691    0.000000
C     0.044563    0.310664    0.000000
Br    -1.926607    0.414369    0.000000
Br     0.610943   -0.684612    1.604449
Br     0.610943   -0.684612   -1.604449
H     2.571229    1.384883   -0.883343
H     2.403459    2.901508    0.000000
H     2.571229    1.384883    0.883343
H     0.195648    2.225398   -0.877219
H     0.195648    2.225398    0.877219
