20
1-1-1-trimethoxyethane[B3LYP/aug-cc-pVTZ]
C     0.396763   -0.849410    1.557707
C    -1.307595    1.844297   -0.284042
C    -1.397054   -1.675296   -0.631754
C     2.299456    0.075180   -0.646213
C     0.083784   -0.016254    0.319117
O    -0.932476    0.864857    0.686795
O    -0.287293   -0.804780   -0.801289
O     1.175176    0.756275   -0.102867
H     1.120921   -1.627964    1.326124
H     0.801114   -0.194836    2.326325
H    -0.507613   -1.314379    1.943099
H    -0.521991    2.587274   -0.415187
H    -2.202110    2.321102    0.109521
H    -1.531943    1.383740   -1.247020
H    -1.666306   -2.024172   -1.626421
H    -2.250042   -1.156136   -0.190361
H    -1.144456   -2.540690   -0.013310
H     2.776750   -0.573021    0.093646
H     3.004868    0.850810   -0.935557
H     2.025435   -0.513636   -1.520874
