8
1-1-1-trichloro-ethane[B3LYP/aug-cc-pVTZ]
C     0.000000    0.000000    1.770041
C     0.000000    0.000000    0.257391
Cl     0.000000    1.689350   -0.363984
Cl     1.463020   -0.844675   -0.363984
Cl    -1.463020   -0.844675   -0.363984
H     0.000000   -1.025689    2.132856
H     0.888273    0.512844    2.132856
H    -0.888273    0.512844    2.132856
