11
1-1-3-3-tetrachloropropane[B3LYP/aug-cc-pVTZ]
C     0.000000    0.000000    0.731800
C     0.000000    1.274009   -0.097804
C     0.000000   -1.274009   -0.097804
Cl     0.132799    2.700697    0.986148
Cl    -1.483724    1.397852   -1.115518
Cl     1.483724   -1.397852   -1.115518
Cl    -0.132799   -2.700697    0.986148
H    -0.881449   -0.008441    1.372394
H     0.881449    0.008441    1.372394
H     0.836615    1.328750   -0.781690
H    -0.836615   -1.328750   -0.781690
