9
1-1-2-3-3-3-hexafluoroprop-1-ene[B3LYP/aug-cc-pVTZ]
C     0.245890   -0.471484   -0.000001
C     1.412981    0.161547    0.000001
C    -1.126370    0.134384   -0.000001
F     0.234429   -1.812633    0.000002
F     2.559922   -0.475620    0.000002
F     1.575610    1.460961    0.000000
F    -1.821022   -0.263524    1.082021
F    -1.082861    1.471534   -0.000098
F    -1.821079   -0.263683   -1.081926
