8
1-1-2-trichloro-1-2-2-trifluoroethane[B3LYP/aug-cc-pVTZ]
C     0.578488    0.148776    0.311897
C    -0.726971   -0.530081   -0.225129
F     0.477526    0.252431    1.648651
Cl     1.977285   -0.887503   -0.077159
Cl     0.788750    1.767240   -0.389497
Cl    -2.180351    0.394434    0.227356
F    -0.665283   -0.645666   -1.555470
F    -0.819545   -1.759329    0.300984
