15
1-1-2-2-tetrabromocyclopentane[B3LYP/aug-cc-pVTZ]
C     0.000000    0.000000    2.693335
C     0.538475    1.120980    1.766647
C    -0.538475   -1.120980    1.766647
C     0.000000    0.776480    0.375559
C     0.000000   -0.776480    0.375559
Br     0.983336    1.629747   -1.078597
Br    -1.889434    1.429343    0.276857
Br     1.889434   -1.429343    0.276857
Br    -0.983336   -1.629747   -1.078597
H     0.797053   -0.368652    3.334861
H    -0.797053    0.368652    3.334861
H     0.233979    2.118709    2.066640
H     1.625336    1.101079    1.726125
H    -0.233979   -2.118709    2.066640
H    -1.625336   -1.101079    1.726125
