11
1-1-3-3-tetrafluoropropane[B3LYP/aug-cc-pVTZ]
C     0.448354   -0.545579    0.000000
C    -0.285414   -0.171763    1.270135
C    -0.285414   -0.171763   -1.270135
F     0.361469   -0.731547    2.340045
F    -0.285414    1.179129    1.461730
F    -0.285414    1.179129   -1.461730
F     0.361469   -0.731547   -2.340045
H     0.581940   -1.627632    0.000000
H     1.431669   -0.074796    0.000000
H    -1.323885   -0.509706    1.300971
H    -1.323885   -0.509706   -1.300971
