10
1-2-butadiene[B3LYP/aug-cc-pVTZ]
C    -0.676877    1.824455    0.000000
C     0.000000    0.712806    0.000000
C     0.674729   -0.400337    0.000000
C     0.070788   -1.779546    0.000000
H    -0.970419    2.308430    0.924346
H    -0.970419    2.308430   -0.924346
H     1.759891   -0.339248    0.000000
H    -1.016629   -1.735258    0.000000
H     0.392869   -2.343309   -0.878652
H     0.392869   -2.343309    0.878652
