8
1-2-dibromoethane[B3LYP/aug-cc-pVTZ]
C     0.493728    0.567234    0.000000
C    -0.493728   -0.567234    0.000000
Br    -0.493728    2.283784    0.000000
Br     0.493728   -2.283784    0.000000
H     1.112645    0.580282    0.889576
H     1.112645    0.580282   -0.889576
H    -1.112645   -0.580282   -0.889576
H    -1.112645   -0.580282    0.889576
