11
1-2-dichloropropane[B3LYP/aug-cc-pVTZ]
C     0.666782    1.690821   -0.460286
C    -0.725969    0.098901    0.986609
C     0.649984    0.536037    0.521680
Cl    -1.857919   -0.342878   -0.351048
Cl     1.569886   -0.883973   -0.164823
H     0.168266    1.420936   -1.388454
H     0.146881    2.547529   -0.025224
H     1.689864    1.985265   -0.683868
H    -0.661903   -0.769025    1.634334
H    -1.198048    0.919690    1.523433
H     1.206722    0.797530    1.421558
