10
1-2-dichloroethyl-hydroperoxide[B3LYP/aug-cc-pVTZ]
Cl    -0.802776    1.542890   -0.140419
Cl     2.113305   -0.235887   -0.445398
O    -0.818187   -1.131783   -0.204327
O    -2.257807   -1.225852   -0.211671
C    -0.450958   -0.091853    0.628640
C     1.015455   -0.237799    0.975858
H    -1.051458   -0.091718    1.536612
H     1.314562    0.581471    1.620958
H     1.157889   -1.186487    1.487459
H    -2.479028   -0.683324   -0.985157
