10
1-2-dicyano-1-2-ethenedithiol[B3LYP/aug-cc-pVTZ]
S     1.653853   -1.466360   -0.041522
S    -1.653853    1.466359   -0.041519
N     1.962540    2.243904    0.036069
N    -1.962540   -2.243904    0.036069
C     0.678815    0.016108    0.014810
C    -0.678816   -0.016108    0.014811
C     1.374141    1.251705    0.022854
C    -1.374142   -1.251705    0.022855
H     2.827783   -0.852149    0.185852
H    -2.827783    0.852148    0.185851
