8
1-2-dichloroethane[B3LYP/aug-cc-pVTZ]
C    -0.299342    0.692073    0.892875
C     0.299342   -0.692073    0.892875
Cl     0.299342    1.715125   -0.469310
Cl    -0.299342   -1.715125   -0.469310
H    -1.381552    0.661641    0.812196
H    -0.016551    1.207148    1.808816
H     0.016551   -1.207148    1.808816
H     1.381552   -0.661641    0.812196
