12
1-2-dimethylhydrazine[B3LYP/aug-cc-pVTZ]
C     0.414691    1.407380    0.525760
N     0.414691    0.576813   -0.674955
N    -0.414691   -0.576813   -0.674955
C    -0.414691   -1.407380    0.525760
H    -1.350955   -0.279245   -0.913971
H    -0.587418    1.808180    0.689219
H     0.736630    0.902508    1.444977
H     1.084191    2.249794    0.349899
H     1.350955    0.279245   -0.913971
H    -1.084191   -2.249794    0.349899
H    -0.736630   -0.902508    1.444977
H     0.587418   -1.808180    0.689219
