10
1-2-ethanediol[B3LYP/aug-cc-pVTZ]
C     0.680732    0.592289   -0.291181
C    -0.721940    0.567772    0.287742
O     1.404236   -0.594510    0.050668
O    -1.459811   -0.557597   -0.160898
H     1.214042    1.489687    0.038901
H     0.632713    0.600665   -1.379775
H    -1.271483    1.455526   -0.029664
H    -0.669565    0.583184    1.385698
H     1.668590   -0.545996    0.974636
H    -0.882437   -1.326578   -0.087321
