22
2-ethoxyethoxyethane[B3LYP/aug-cc-pVTZ]
C    -0.185454    3.476467    1.177678
C     0.185454   -3.476467    1.177678
C     0.448568    2.723875    0.026404
C    -0.448568   -2.723875    0.026404
C     0.330721    0.678899   -1.157349
C    -0.330721   -0.678899   -1.157349
O    -0.185454    1.462479   -0.100569
O     0.185454   -1.462479   -0.100569
H     0.289479    4.450910    1.299148
H    -1.249152    3.631512    0.997075
H    -0.073398    2.919207    2.107537
H    -0.289479   -4.450910    1.299148
H     1.249152   -3.631512    0.997075
H     0.073398   -2.919207    2.107537
H     1.523271    2.581941    0.202423
H     0.343221    3.289948   -0.909829
H    -1.523271   -2.581941    0.202423
H    -0.343221   -3.289948   -0.909829
H     0.140113    1.170529   -2.121857
H     1.415919    0.554537   -1.050343
H    -0.140113   -1.170529   -2.121857
H    -1.415919   -0.554537   -1.050343
