19
1-2-furylpyridin-2-one[B3LYP/aug-cc-pVTZ]
C    -3.194575   -0.313665    0.532954
C    -1.888732   -0.508814    1.083438
C    -3.009799    0.096865   -0.744869
C    -1.019311   -0.203012    0.091580
C     3.135362   -0.257975   -0.067413
C     2.506179    0.937102    0.061393
C     2.396422   -1.469775   -0.153237
C     1.044926   -1.406409   -0.107584
C     1.064931    1.048883    0.123453
N     0.385002   -0.209485    0.027326
O     0.429863    2.079331    0.252424
O    -1.682395    0.164204   -1.036752
H    -4.138874   -0.452415    1.029472
H    -1.631730   -0.812260    2.082940
H    -3.678984    0.370087   -1.539794
H     4.216627   -0.293566   -0.105985
H     3.049817    1.867462    0.131301
H     2.886862   -2.424324   -0.258784
H     0.409095   -2.276074   -0.174091
