13
1-2-pentadiene[B3LYP/aug-cc-pVTZ]
C    -1.396817    0.429335    0.000000
C    -1.472698   -1.093148    0.000000
C     0.000000    1.004651    0.000000
C     1.112304    0.327742    0.000000
C     2.229478   -0.340821    0.000000
H    -1.928062    0.827718    0.870383
H    -1.928062    0.827718   -0.870383
H    -0.983848   -1.513104   -0.879616
H    -2.511270   -1.424852    0.000000
H    -0.983848   -1.513104    0.879616
H     0.069668    2.089604    0.000000
H     2.715910   -0.630267   -0.924292
H     2.715910   -0.630267    0.924292
