9
1-2-thiazole-3-thione[B3LYP/aug-cc-pVTZ]
S    -1.852923   -0.547135    0.000003
S     2.341496   -0.118506    0.000003
N    -0.197443   -0.956196   -0.000012
C     0.689320    0.084870   -0.000004
C    -0.074363    1.311044   -0.000004
C    -1.409363    1.123574    0.000003
H     0.409589    2.273247   -0.000007
H     0.109128   -1.916200    0.000016
H    -2.187332    1.869648    0.000005
