17
1-2-furylpyrrole[B3LYP/aug-cc-pVTZ]
C    -2.772926   -0.745430    0.127040
C    -2.835748    0.657366   -0.109605
C     2.860308    0.583052    0.103711
C     1.551119    1.154181    0.212862
C    -1.451987   -1.096859    0.185131
C    -1.550872    1.119466   -0.190721
C     2.691852   -0.736863   -0.133470
C     0.685887    0.123810    0.019734
N    -0.697666    0.046430   -0.010764
O     1.353226   -1.035205   -0.194701
H    -3.604798   -1.419043    0.239788
H    -3.724063    1.255180   -0.219283
H     3.800352    1.097381    0.201917
H     1.298133    2.176815    0.425961
H    -0.974196   -2.044614    0.349051
H    -1.163532    2.103939   -0.379320
H     3.360167   -1.565371   -0.273248
