8
1-2-3-oxathiazole[B3LYP/aug-cc-pVTZ]
S     1.186410   -0.064006    0.045138
O    -0.061150   -1.221903   -0.137878
N     0.175744    1.267799   -0.042280
C    -1.314499   -0.572652    0.090963
C    -1.045628    0.909737   -0.039631
H    -2.026854   -0.942923   -0.648855
H    -1.699331   -0.803961    1.095565
H    -1.836625    1.649104   -0.077924
