7
1-2-3-oxadiazole[B3LYP/aug-cc-pVTZ]
O    -1.090936    0.355540    0.000000
N    -0.611357   -1.025671    0.000000
N     0.631549   -0.984727    0.000000
C     1.095265    0.310964    0.000000
C     0.000000    1.106756    0.000000
H     2.142317    0.547367    0.000000
H    -0.127759    2.174789    0.000000
