8
1-2-3-triazole[B3LYP/aug-cc-pVTZ]
N     0.000000    1.067552    0.000000
N    -1.127818    0.334603    0.000000
N    -0.769838   -0.912161    0.000000
C     0.589795   -0.989098    0.000000
C     1.100389    0.282255    0.000000
H    -0.062722    2.071574    0.000000
H     1.103956   -1.933077    0.000000
H     2.101258    0.672603    0.000000
