9
4-isothiazolecarbonitrile[B3LYP/aug-cc-pVTZ]
S     1.790737   -0.475898   -0.000002
N     1.364374    1.134172   -0.000002
N    -3.240588   -0.146020   -0.000007
C    -0.672756    0.008613    0.000004
C     0.191251   -1.060988    0.000003
C     0.060358    1.235299    0.000002
C    -2.089661   -0.084352    0.000005
H    -0.056134   -2.109489    0.000004
H    -0.397308    2.215358    0.000003
