11
1-2-3-trichloro-propane[B3LYP/aug-cc-pVTZ]
C     0.430741    0.570041    0.000000
C    -0.305104    0.279695    1.300643
C    -0.305104    0.279695   -1.300643
Cl     0.726567    2.382023    0.000000
Cl    -0.305104   -1.475215   -1.736081
Cl    -0.305104   -1.475215    1.736081
H     1.416453    0.115060    0.000000
H     0.183833    0.788707   -2.122928
H     0.183833    0.788707    2.122928
H    -1.342701    0.596935   -1.244192
H    -1.342701    0.596935    1.244192
