12
1-2-3-4-tetrafluorobenzene[B3LYP/aug-cc-pVTZ]
C     0.000000    1.377987   -0.525257
C     0.000000    0.695340   -1.726214
C     0.000000   -0.695340   -1.726214
C     0.000000   -1.377987   -0.525257
C     0.000000   -0.694285    0.684098
C     0.000000    0.694285    0.684098
F     0.000000    2.719143   -0.501822
H     0.000000    1.255360   -2.649366
H     0.000000   -1.255360   -2.649366
F     0.000000   -2.719143   -0.501822
F     0.000000   -1.357117    1.841111
F     0.000000    1.357117    1.841111
