9
1-2-3-trioxolane[B3LYP/aug-cc-pVTZ]
O    -0.557524   -1.069370    0.000000
O     0.138457   -0.482273    1.115905
O     0.138457   -0.482273   -1.115905
C     0.138457    0.901420    0.775632
C     0.138457    0.901420   -0.775632
H     1.040255    1.327083    1.210950
H     1.040255    1.327083   -1.210950
H    -0.748557    1.400059    1.169152
H    -0.748557    1.400059   -1.169152
