21
1-2-3-trimethylbenzene[B3LYP/aug-cc-pVTZ]
C    -0.013713   -2.140034    0.000000
C    -1.206232   -1.434267    0.000000
C     1.188364   -1.448980    0.000000
C    -1.219337   -0.039134    0.000000
C     1.211026   -0.056326    0.000000
C     0.000000    0.658904    0.000000
C    -2.548821    0.677092    0.000000
C     2.533357    0.666411    0.000000
C     0.040515    2.167409    0.000000
H    -0.020953   -3.222033    0.000000
H    -2.147129   -1.970109    0.000000
H     2.124223   -1.993715    0.000000
H    -2.669919    1.314846    0.878141
H    -2.669919    1.314846   -0.878141
H    -3.368212   -0.040077    0.000000
H     2.643869    1.309810   -0.876251
H     2.643869    1.309810    0.876251
H     3.361993   -0.039937    0.000000
H     0.571159    2.550206   -0.875359
H    -0.951091    2.609692    0.000000
H     0.571159    2.550206    0.875359
