10
1-2-3-5-thiatriazolidine[B3LYP/aug-cc-pVTZ]
S     1.269184    0.021994   -0.048659
N    -0.119168    1.321785   -0.175767
N     0.137736   -1.247091    0.185652
N    -1.310755    0.631314    0.167212
C    -1.144328   -0.729142   -0.328537
H     0.047793    2.004441    0.559957
H     0.046503   -1.444294    1.177121
H    -1.422604    0.577582    1.179868
H    -1.098328   -0.703317   -1.415165
H    -1.969031   -1.353519    0.008300
