12
1-2-3-trifluorobenzene[B3LYP/aug-cc-pVTZ]
C     0.000000    0.000000   -2.055605
C     0.000000    1.208669   -1.369465
C     0.000000    1.195102    0.013528
C     0.000000    0.000000    0.720519
C     0.000000   -1.195102    0.013528
C     0.000000   -1.208669   -1.369465
F     0.000000   -2.344755    0.704591
F     0.000000    0.000000    2.056059
F     0.000000    2.344755    0.704591
H     0.000000    0.000000   -3.135818
H     0.000000    2.157806   -1.884800
H     0.000000   -2.157806   -1.884800
