8
1-2-3-4-tetrazine[B3LYP/aug-cc-pVTZ]
N     0.000000    1.355099   -0.047558
N     0.000000    0.655407   -1.178699
N     0.000000   -0.655407   -1.178699
N     0.000000   -1.355099   -0.047558
C     0.000000   -0.693285    1.096489
C     0.000000    0.693285    1.096489
H     0.000000   -1.283068    2.004868
H     0.000000    1.283068    2.004868
