12
1-2-4-5-hexatetraene[B3LYP/aug-cc-pVTZ]
C     0.604942    1.720376    0.000000
C     0.606915    3.019337    0.000000
C     0.604942    0.411180    0.000000
C    -0.604954   -0.411180    0.000000
C    -0.604953   -1.720376    0.000000
C    -0.606912   -3.019337    0.000000
H     0.608735    3.586335    0.924515
H     0.608735    3.586335   -0.924515
H     1.556375   -0.110823    0.000000
H    -1.556386    0.110823    0.000000
H    -0.608669   -3.586335   -0.924515
H    -0.608669   -3.586335    0.924515
