10
1-2-4-dioxazolidine[B3LYP/aug-cc-pVTZ]
O    -0.804673   -0.888677   -0.282832
O     0.593732   -1.074262    0.088267
N     0.083188    1.201711   -0.098487
C    -1.066719    0.402826    0.261301
C     1.178668    0.263372    0.057915
H    -1.160116    0.336299    1.347953
H    -1.985776    0.765925   -0.193125
H     1.887205    0.349580   -0.766514
H     1.686489    0.379914    1.015848
H     0.005718    1.462625   -1.073532
