10
1-2-4-5-tetraoxane[B3LYP/aug-cc-pVTZ]
O     0.667290    1.027732   -0.440985
O     1.225661    0.020424    0.440386
O    -1.225661   -0.020424    0.440386
O    -0.667290   -1.027732   -0.440985
C    -0.667290    1.205624    0.000454
C     0.667290   -1.205624    0.000454
H    -0.743907    1.858599    0.874591
H    -1.180482    1.619002   -0.872517
H     1.180482   -1.619002   -0.872517
H     0.743907   -1.858599    0.874591
