13
1-2-5-oxathiazolidine-4-carboxylicacid[B3LYP/aug-cc-pVTZ]
S     2.173408   -0.484649   -0.218616
O     1.706873    1.062931    0.309144
O    -2.406268    1.061439   -0.306376
O    -2.347569   -1.153252    0.077835
N     0.354539    1.209545   -0.199575
C    -0.337365    0.073070    0.423591
C    -1.793433    0.075562    0.003121
C     0.479207   -1.171035    0.031849
H    -3.285795   -1.061746   -0.148192
H     0.051131    2.086883    0.215271
H    -0.334047    0.154184    1.518761
H     0.458740   -1.921418    0.816656
H     0.138929   -1.604861   -0.903801
