24
1-3-dimethylnaphthalene[B3LYP/aug-cc-pVTZ]
C     2.773055    1.261111    0.000000
C     1.856389    2.329988    0.000000
C     2.317617   -0.031831    0.000000
C     0.505981    2.084632    0.000000
C     0.453695   -1.652390    0.000000
C    -1.801003   -0.844292    0.000000
C     0.931909   -0.319067    0.000000
C     0.000000    0.762178    0.000000
C    -0.887961   -1.928786    0.000000
C    -1.398841    0.467661    0.000000
C    -1.410513   -3.339932    0.000000
C    -2.419621    1.574311    0.000000
H     3.835851    1.463645    0.000000
H     2.220247    3.348890    0.000000
H     3.018072   -0.857766    0.000000
H    -0.183202    2.916945    0.000000
H     1.175542   -2.460565    0.000000
H    -2.862447   -1.065376    0.000000
H    -2.031880   -3.530639    0.877960
H    -2.031880   -3.530639   -0.877960
H    -0.598144   -4.065331    0.000000
H    -2.318622    2.216328    0.878002
H    -2.318622    2.216328   -0.878002
H    -3.429158    1.166683    0.000000
