11
1-3-dihydropyrrol-2-one[B3LYP/aug-cc-pVTZ]
C     0.607256   -1.472453    0.000000
C    -0.720908   -1.347453    0.000000
C     0.000000    0.838463    0.000000
C     1.215158   -0.096851    0.000000
N    -1.101042    0.002861    0.000000
O    -0.024582    2.048657    0.000000
H     1.152714   -2.400270    0.000000
H    -1.477373   -2.115225    0.000000
H     1.831991    0.113272    0.876531
H     1.831991    0.113272   -0.876531
H    -2.044414    0.349438    0.000000
