8
1-3-dithiole-2-thione[B3LYP/aug-cc-pVTZ]
S     0.000000    0.000000    2.271299
C     0.000000    0.000000    0.630759
S     0.000000    1.453602   -0.360432
C     0.000000    0.668708   -1.915944
C     0.000000   -0.668708   -1.915944
S     0.000000   -1.453602   -0.360432
H     0.000000    1.287666   -2.800087
H     0.000000   -1.287666   -2.800087
