10
1-3-dithiolane-2-thione[B3LYP/aug-cc-pVTZ]
H     0.649149    1.161865   -2.677287
H    -0.649149   -1.161865   -2.677287
S     0.000000    0.000000    2.320077
C     0.000000    0.000000    0.684261
S    -0.642955   -1.323450   -0.281165
S     0.642955    1.323450   -0.281165
H     1.004355   -1.158971   -2.032629
C     0.000000   -0.759876   -1.900808
H    -1.004355    1.158971   -2.032629
C     0.000000    0.759876   -1.900808
