10
1-3-dioxolan-2-one[B3LYP/aug-cc-pVTZ]
C     0.000000    0.000000    0.851993
C    -0.168984    0.745968   -1.301801
C     0.168984   -0.745968   -1.301801
O     0.000000    0.000000    2.039757
O     0.000000    1.114456    0.074557
O     0.000000   -1.114456    0.074557
H     0.504009    1.345920   -1.908473
H    -1.201132    0.944052   -1.592185
H    -0.504009   -1.345920   -1.908473
H     1.201132   -0.944052   -1.592185
