14
1-3-dioxane[B3LYP/aug-cc-pVTZ]
H     0.551499   -2.301909    0.000000
H     1.666462   -0.888490    0.000000
C     0.613674   -1.217264    0.000000
O    -0.017447   -0.764404    1.171597
O    -0.017447   -0.764404   -1.171597
H    -0.553642    0.923256   -2.152989
H     1.017015    1.020150   -1.338331
C    -0.017447    0.661398   -1.242927
H     1.017015    1.020150    1.338331
H    -0.553642    0.923256    2.152989
C    -0.017447    0.661398    1.242927
H    -0.568831    2.344294    0.000000
H    -1.736457    1.016352    0.000000
C    -0.672158    1.256703    0.000000
