8
1-3-dioxetane[B3LYP/aug-cc-pVTZ]
C    -0.985328    0.000000    0.000000
C     0.985328    0.000000    0.000000
O     0.000000    1.035861    0.000000
O     0.000000   -1.035861    0.000000
H    -1.603663    0.000000    0.903194
H     1.603663    0.000000    0.903194
H    -1.603663    0.000000   -0.903194
H     1.603663    0.000000   -0.903194
