13
1-3-propanedithiol[B3LYP/aug-cc-pVTZ]
C     0.000000    0.000000    0.156756
C     0.000000    1.260347   -0.704215
C     0.000000   -1.260347   -0.704215
H     0.877590    0.000000    0.806673
H    -0.877590    0.000000    0.806673
S     0.000000    2.743925    0.388305
S     0.000000   -2.743925    0.388305
H     0.000000    3.667139   -0.589694
H     0.000000   -3.667139   -0.589694
H     0.885217    1.290973   -1.337416
H    -0.885217    1.290973   -1.337416
H    -0.885217   -1.290973   -1.337416
H     0.885217   -1.290973   -1.337416
