16
1-3-pyridylethanone[B3LYP/aug-cc-pVTZ]
C     1.696861   -1.488658    0.000000
C     1.351488   -0.149893    0.000000
C     0.678555   -2.438597    0.000000
C    -0.937596   -0.833228    0.000000
C     0.000000    0.201553    0.000000
C    -0.380417    1.650164    0.000000
C    -1.846581    2.020736    0.000000
N    -0.617071   -2.126889    0.000000
O     0.479637    2.507928    0.000000
H     2.731891   -1.800787    0.000000
H     2.096554    0.633301    0.000000
H     0.915030   -3.496491    0.000000
H    -1.998650   -0.616441    0.000000
H    -2.350642    1.614767    0.878826
H    -2.350642    1.614767   -0.878826
H    -1.935004    3.103219    0.000000
