7
1-3-4-oxadiazole[B3LYP/aug-cc-pVTZ]
O     0.000000    0.000000    1.123780
C     0.000000    1.052759    0.266386
N     0.000000    0.701433   -0.967868
N     0.000000   -0.701433   -0.967868
C     0.000000   -1.052759    0.266386
H     0.000000    2.044558    0.681643
H     0.000000   -2.044558    0.681643
