9
1-3-4-thiadiazolidine-2-5-dithione[B3LYP/aug-cc-pVTZ]
C     0.000000    1.290037   -0.095700
S     0.000000    0.000000    1.123017
C     0.000000   -1.290037   -0.095700
S     0.098380   -2.902976    0.183152
S    -0.098380    2.902976    0.183152
N     0.082142    0.693918   -1.317219
N    -0.082142   -0.693918   -1.317219
H    -0.281158    1.189103   -2.119842
H     0.281158   -1.189103   -2.119842
