8
1-3-4-triazole[B3LYP/aug-cc-pVTZ]
N     0.000000    0.691069   -0.992631
N     0.000000   -0.691069   -0.992631
C     0.000000   -1.080094    0.251566
N     0.000000    0.000000    1.085367
C     0.000000    1.080094    0.251566
H     0.000000   -2.100069    0.594993
H     0.000000    0.000000    2.090477
H     0.000000    2.100069    0.594993
