16
1-4-butanediol[B3LYP/aug-cc-pVTZ]
O     1.498061    2.666221    0.000000
O    -1.498061   -2.666221    0.000000
C     1.498061    1.237514    0.000000
C    -1.498061   -1.237514    0.000000
C     0.056538    0.762057    0.000000
C    -0.056538   -0.762057    0.000000
H     2.406126    2.980641    0.000000
H    -2.406126   -2.980641    0.000000
H    -0.445072    1.179692    0.876807
H    -0.445072    1.179692   -0.876807
H     0.445072   -1.179692    0.876807
H     0.445072   -1.179692   -0.876807
H    -2.018661   -0.854825   -0.885586
H    -2.018661   -0.854825    0.885586
H     2.018661    0.854825   -0.885586
H     2.018661    0.854825    0.885586
