12
1-3-5-trithiane[B3LYP/aug-cc-pVTZ]
C     0.000000    1.600757    0.401027
C     1.386296   -0.800378    0.401027
C    -1.386296   -0.800378    0.401027
S     1.549588    0.894655   -0.250561
S    -1.549588    0.894655   -0.250561
S     0.000000   -1.789310   -0.250561
H     0.000000    1.541440    1.489315
H     0.000000    2.649012    0.113501
H     2.294111   -1.324506    0.113501
H     1.334926   -0.770720    1.489315
H    -1.334926   -0.770720    1.489315
H    -2.294111   -1.324506    0.113501
