14
1-4-cyclohexadiene[B3LYP/aug-cc-pVTZ]
C     1.494187    0.000000    0.000000
C    -1.494187    0.000000    0.000000
C    -0.664224    1.251037    0.000000
C     0.664224    1.251037    0.000000
C    -0.664224   -1.251037    0.000000
C     0.664224   -1.251037    0.000000
H     1.198840   -2.194197    0.000000
H    -1.198840   -2.194197    0.000000
H     1.198840    2.194197    0.000000
H    -1.198840    2.194197    0.000000
H     2.167593    0.000000    0.866807
H    -2.167593    0.000000    0.866807
H     2.167593    0.000000   -0.866807
H    -2.167593    0.000000   -0.866807
