9
1-3-5-triazine[B3LYP/aug-cc-pVTZ]
C     0.000000    1.292045    0.000000
N     1.184015    0.683592    0.000000
N    -1.184015    0.683592    0.000000
C     1.118944   -0.646022    0.000000
C    -1.118944   -0.646022    0.000000
N     0.000000   -1.367183    0.000000
H     0.000000    2.376108    0.000000
H    -2.057770   -1.188054    0.000000
H     2.057770   -1.188054    0.000000
