25
1-4-dimethylnorborane[B3LYP/aug-cc-pVTZ]
C     0.000000    0.000000    1.162215
C     0.000000    1.146150    0.130119
C     0.000000   -1.146150    0.130119
C     1.246419    0.777460   -0.711377
C    -1.246419    0.777460   -0.711377
C    -1.246419   -0.777460   -0.711377
C     1.246419   -0.777460   -0.711377
H    -0.887511    0.000000    1.799660
H     0.887511    0.000000    1.799660
C     0.000000    2.567261    0.662990
C     0.000000   -2.567261    0.662990
H     2.149630    1.169313   -0.239900
H    -2.149630   -1.169313   -0.239900
H     2.149630   -1.169313   -0.239900
H    -2.149630    1.169313   -0.239900
H     1.195920   -1.204338   -1.714197
H    -1.195920    1.204338   -1.714197
H     1.195920    1.204338   -1.714197
H    -1.195920   -1.204338   -1.714197
H     0.882939   -2.760591    1.276063
H     0.000000   -3.294790   -0.152370
H    -0.882939   -2.760591    1.276063
H    -0.882939    2.760591    1.276063
H     0.000000    3.294790   -0.152370
H     0.882939    2.760591    1.276063
