15
hepta-1-5-diyne[B3LYP/aug-cc-pVTZ]
C    -2.375167    1.623271   -0.199143
C    -2.007050    0.527064    0.118833
C     1.874986   -0.008026   -0.044601
C     0.850272   -0.614152   -0.202794
C     3.114009    0.734257    0.139370
C    -1.564604   -0.810976    0.487974
C    -0.398446   -1.345731   -0.378509
H    -2.697409    2.595513   -0.476233
H     3.585287    0.955741   -0.819838
H     2.929194    1.683095    0.646012
H     3.828780    0.168899    0.739903
H    -2.406200   -1.502168    0.396639
H    -1.262452   -0.817791    1.537388
H    -0.697428   -1.320675   -1.428857
H    -0.243770   -2.396855   -0.121794
