24
1-4-dimethylcyclohexane[B3LYP/aug-cc-pVTZ]
C    -0.128603    0.754635    1.257237
C     0.128603   -0.754635    1.257237
C    -0.128603    0.754635   -1.257237
C     0.128603   -0.754635   -1.257237
C     0.420511    1.441390    0.000000
C    -0.420511   -1.441390    0.000000
C     0.128603    2.941424    0.000000
C    -0.128603   -2.941424    0.000000
H    -1.207697    0.938689    1.316247
H     0.309333    1.209266    2.149736
H     1.207697   -0.938689    1.316247
H    -0.309333   -1.209266    2.149736
H     0.309333    1.209266   -2.149736
H    -1.207697    0.938689   -1.316247
H    -0.309333   -1.209266   -2.149736
H     1.207697   -0.938689   -1.316247
H     1.509662    1.308301    0.000000
H    -1.509662   -1.308301    0.000000
H     0.549005    3.428483   -0.881999
H    -0.948008    3.128721    0.000000
H     0.549005    3.428483    0.881999
H     0.948008   -3.128721    0.000000
H    -0.549005   -3.428483    0.881999
H    -0.549005   -3.428483   -0.881999
