16
1-4-pyridylethanone[B3LYP/aug-cc-pVTZ]
C    -1.004320   -0.762666    0.000000
C     1.322736   -0.237243    0.000000
C    -0.645498   -2.106337    0.000000
C     1.576680   -1.600517    0.000000
C     0.000000    0.203071    0.000000
C    -0.278823    1.682041    0.000000
C    -1.715873    2.149965    0.000000
N     0.617007   -2.529678    0.000000
O     0.639000    2.474708    0.000000
H    -2.050239   -0.492383    0.000000
H     2.126827    0.484057    0.000000
H    -1.409956   -2.874662    0.000000
H     2.596289   -1.967379    0.000000
H    -2.245005    1.777376    0.878947
H    -2.245005    1.777376   -0.878947
H    -1.733368    3.235824    0.000000
