14
1-4-dioxane[B3LYP/aug-cc-pVTZ]
C     0.225402    0.725379    1.173820
C    -0.225402   -0.725379    1.173820
C     0.225402    0.725379   -1.173820
C    -0.225402   -0.725379   -1.173820
O    -0.225402    1.393629    0.000000
O     0.225402   -1.393629    0.000000
H    -0.194991    1.264433    2.022632
H     1.320586    0.773781    1.230887
H     0.194991   -1.264433    2.022632
H    -1.320586   -0.773781    1.230887
H     1.320586    0.773781   -1.230887
H    -0.194991    1.264433   -2.022632
H    -1.320586   -0.773781   -1.230887
H     0.194991   -1.264433   -2.022632
