9
1H-pyrazole[B3LYP/aug-cc-pVTZ]
C     0.662598   -0.995432    0.000000
C    -0.743268   -0.890370    0.000000
C     1.107645    0.307032    0.000000
N    -1.142688    0.375589    0.000000
N     0.000000    1.085189    0.000000
H     1.262650   -1.887482    0.000000
H    -1.475618   -1.680369    0.000000
H     2.098322    0.726839    0.000000
H    -0.048386    2.088195    0.000000
