11
1H-pyrazin-2-one[B3LYP/aug-cc-pVTZ]
C     0.100732   -1.751447    0.000000
C    -1.100249   -1.123375    0.000000
C     1.230486    0.248996    0.000000
C     0.000000    1.043061    0.000000
N     1.273925   -1.045277    0.000000
N    -1.140617    0.238051    0.000000
O    -0.072478    2.260456    0.000000
H     0.169795   -2.828181    0.000000
H    -2.046117   -1.644386    0.000000
H     2.160066    0.806767    0.000000
H    -2.022892    0.729333    0.000000
