11
1H-pyrimidin-4-one[B3LYP/aug-cc-pVTZ]
C     1.223728    0.268149    0.000000
C     1.156706   -1.073788    0.000000
C    -1.203480   -0.921610    0.000000
C     0.000000    1.076085    0.000000
N    -1.223091    0.359317    0.000000
N    -0.072567   -1.688836    0.000000
O     0.011892    2.291393    0.000000
H     2.174691    0.778052    0.000000
H     2.019381   -1.723884    0.000000
H    -2.135162   -1.480194    0.000000
H    -0.146168   -2.691497    0.000000
