15
1H-3H-9H-alloxanthine[B3LYP/aug-cc-pVTZ]
C    -0.531875   -1.845904    0.000000
N     0.771404   -1.348773    0.000000
C     1.003562   -0.002016    0.000000
C     0.000000    0.950259    0.000000
C     0.690256    2.188187    0.000000
N     1.994421    2.015793    0.000000
N     2.175035    0.654328    0.000000
N    -1.513744   -0.871250    0.000000
C    -1.384929    0.539209    0.000000
O    -0.763178   -3.034653    0.000000
O    -2.371414    1.243358    0.000000
H    -2.459834   -1.224597    0.000000
H     1.502564   -2.040445    0.000000
H     3.109527    0.285765    0.000000
H     0.272581    3.180547    0.000000
