14
1H-9H-hypoxanthine[B3LYP/aug-cc-pVTZ]
C     0.682278   -2.011975    0.000000
N    -0.594186   -1.780881    0.000000
C    -0.879403   -0.454202    0.000000
C     0.000000    0.622440    0.000000
N    -0.689283    1.811813    0.000000
C    -1.948126    1.467994    0.000000
N    -2.127037    0.103915    0.000000
N     1.638326   -1.045896    0.000000
C     1.418524    0.367369    0.000000
H     1.040118   -3.033903    0.000000
H    -2.782873    2.149310    0.000000
H    -2.996743   -0.401694    0.000000
O     2.361664    1.128525    0.000000
H     2.611808   -1.314335    0.000000
