24
1R-2S-1-2-dimethylcyclohexane[B3LYP/aug-cc-pVTZ]
C    -1.970214    0.143052    0.172978
C    -1.480744   -1.307690    0.157221
C    -1.121757    1.024428   -0.749887
C     0.015884   -1.401750    0.468056
C     0.383838    0.959334   -0.431292
C     0.859319   -0.515324   -0.460979
C     0.725765    1.702133    0.867397
C     2.355971   -0.676582   -0.191592
H    -3.018288    0.190873   -0.131201
H    -1.932318    0.529274    1.195719
H    -2.052364   -1.909311    0.867681
H    -1.667570   -1.737320   -0.832885
H    -1.274482    0.696175   -1.783249
H    -1.464303    2.061271   -0.701898
H     0.192158   -1.114610    1.509552
H     0.350636   -2.438687    0.380000
H     0.910384    1.478545   -1.239286
H     0.676087   -0.866606   -1.483879
H     0.286020    1.232479    1.747768
H     1.802459    1.755395    1.027304
H     0.352228    2.726827    0.824022
H     2.609678   -0.437246    0.842406
H     2.671869   -1.705362   -0.374491
H     2.949430   -0.027309   -0.838979
