14
1H-9H-allopurinol[B3LYP/aug-cc-pVTZ]
C     0.743618   -1.988841    0.000000
N    -0.536382   -1.791562    0.000000
C    -0.865081   -0.470779    0.000000
C     0.000000    0.626262    0.000000
C    -0.849694    1.757502    0.000000
N    -2.119175    1.395232    0.000000
N    -2.113501    0.036902    0.000000
N     1.682928   -1.003258    0.000000
C     1.418760    0.396955    0.000000
H     1.125544   -3.002395    0.000000
O     2.336731    1.192002    0.000000
H    -0.582351    2.800421    0.000000
H     2.661588   -1.251117    0.000000
H    -2.981334   -0.470717    0.000000
