14
1H-8H-allopurinol[B3LYP/aug-cc-pVTZ]
C     0.728933   -1.997108    0.000000
N    -0.543008   -1.810437    0.000000
C    -0.914571   -0.487179    0.000000
C     0.000000    0.605212    0.000000
C    -0.793070    1.736321    0.000000
N    -2.058612    1.279355    0.000000
N    -2.176192   -0.065847    0.000000
N     1.685510   -1.008834    0.000000
C     1.424753    0.375734    0.000000
H     1.120457   -3.007750    0.000000
O     2.329973    1.187587    0.000000
H    -0.552002    2.784573    0.000000
H     2.661361   -1.265449    0.000000
H    -2.899755    1.830394    0.000000
