12
2-amino-2-cyanoethanethioamide[B3LYP/aug-cc-pVTZ]
S    -1.950591   -0.686147   -0.303940
N     1.432922    1.428952   -0.545421
N    -0.711841    1.245188    1.046284
N     2.117170   -1.659656    0.627854
C     0.684478    0.164121   -0.583266
C    -0.693718    0.297052    0.111210
C     1.467167   -0.871492    0.100755
H     0.479303   -0.201586   -1.591769
H     1.137544    2.029439   -1.305751
H     2.426777    1.267897   -0.644579
H    -1.552470    1.410472    1.572884
H     0.102983    1.832653    1.159037
