17
2-methylsulphonylpropane[B3LYP/aug-cc-pVTZ]
C     1.914502   -1.078827   -0.104407
C     1.061527    0.128342   -0.489304
C     1.601028    1.440504    0.068529
S    -0.649449   -0.198934    0.095737
C    -1.646361    1.149604   -0.566671
O    -1.109835   -1.428241   -0.547411
O    -0.671628   -0.094970    1.553917
H     1.500968   -2.001807   -0.504676
H     2.919668   -0.945747   -0.505540
H     1.988659   -1.170348    0.978888
H     0.955561    0.177066   -1.574814
H     2.625979    1.581977   -0.276903
H     1.023346    2.303886   -0.259803
H     1.607003    1.421611    1.157570
H    -1.554403    1.165975   -1.649467
H    -2.667243    0.908253   -0.279320
H    -1.340836    2.090018   -0.118649
