15
2-amino-2-nitroso-3sulfanylpropanoicacid[B3LYP/aug-cc-pVTZ]
S     2.590627   -0.398383    0.022037
O    -1.809480   -1.599735   -0.671452
O    -2.549580    0.115934    0.577774
O    -0.025063    2.199939   -0.680860
N    -0.181727    1.093324   -1.068444
N    -0.043483    0.595039    1.433653
C    -0.211472    0.021895    0.148750
C    -1.585305   -0.610668   -0.028144
C     0.874555   -0.989357   -0.229063
H     2.628680   -0.584070    1.353771
H    -3.394862   -0.321472    0.396688
H    -0.824033    1.185978    1.685952
H     0.803667    1.150378    1.462821
H     0.792491   -1.224457   -1.287032
H     0.726816   -1.911112    0.325783
