12
2-cyanomethyldisulfanylacetonitrile[B3LYP/aug-cc-pVTZ]
S     0.406791    0.942610    0.784578
S    -0.406791   -0.942610    0.784578
N     0.183607    4.290300   -0.635604
N    -0.183607   -4.290300   -0.635604
C    -0.625549    1.822703   -0.494613
C     0.625549   -1.822703   -0.494613
C    -0.183607    3.202009   -0.580957
C     0.183607   -3.202009   -0.580957
H    -0.505885    1.334775   -1.459501
H    -1.669096    1.778086   -0.191095
H     0.505885   -1.334775   -1.459501
H     1.669096   -1.778086   -0.191095
