11
2-azidothiophene[B3LYP/aug-cc-pVTZ]
S    -1.312415   -1.115521   -0.000006
N     1.348922   -0.797364    0.000029
N     2.371560   -0.112910   -0.000008
N     3.375724    0.402319   -0.000020
C     0.117911   -0.130110    0.000011
C    -0.182896    1.205002    0.000013
C    -2.320123    0.290783   -0.000010
C    -1.585097    1.436766    0.000000
H     0.562508    1.986411    0.000024
H    -3.390599    0.180287   -0.000019
H    -2.025487    2.422671    0.000000
