10
2-bromo-N-cyanoacetamide[B3LYP/aug-cc-pVTZ]
Br    -1.822464   -0.386598    0.000000
O     1.646268    1.822022    0.000000
N     1.283970   -0.432569   -0.000001
N     3.675928   -1.135774    0.000000
C     0.879378    0.894432    0.000000
C    -0.615995    1.166915    0.000000
C     2.575324   -0.795297    0.000000
H     0.577496   -1.156929    0.000000
H    -0.856462    1.746884    0.884894
H    -0.856466    1.746887   -0.884891
