9
C3H3O2Br[B3LYP/aug-cc-pVTZ]
Br     1.331781   -0.104442   -0.016627
O    -1.343384    2.469502   -0.177094
O    -1.595812   -1.835253   -0.575224
C    -0.549120    0.161855    0.215110
C    -0.972544    1.384167   -0.004358
C    -1.438830   -0.981513    0.556754
H    -1.922598   -2.690484   -0.278819
H    -2.407475   -0.581724    0.878095
H    -1.005715   -1.533357    1.396182
