10
2-bromoethyl-isothiocyanate[B3LYP/aug-cc-pVTZ]
Br    -2.001735   -0.544799    0.029212
S     3.643384   -0.549890    0.002998
N     1.131283    0.598370   -0.187268
C     0.107233    1.427445    0.365759
C    -1.231365    1.231791   -0.317835
C     2.213269    0.123905   -0.062989
H     0.018284    1.238446    1.437381
H     0.395384    2.476224    0.232945
H    -1.146128    1.315303   -1.396130
H    -1.954745    1.948795    0.056670
