10
2-bromoethyl-isocyanate[B3LYP/aug-cc-pVTZ]
Br    -1.348575   -0.496729    0.033420
O     2.744713   -1.356928   -0.005847
N     1.761073    0.788135   -0.179037
C     0.676014    1.566183    0.358859
C    -0.650037    1.308808   -0.332914
C     2.204873   -0.321207   -0.046476
H     0.918673    2.620383    0.205614
H     0.579485    1.404172    1.433564
H    -0.560282    1.378536   -1.411868
H    -1.408068    1.998180    0.026210
