8
2-bromothiazole[B3LYP/aug-cc-pVTZ]
Br    -1.713736    0.021348    0.000003
S     1.193634   -1.194360   -0.000004
N     0.771555    1.345276   -0.000005
C     0.164507    0.211741   -0.000018
C     2.558028   -0.131730    0.000012
C     2.133775    1.158702    0.000000
H     3.565356   -0.510519    0.000023
H     2.778493    2.023897    0.000005
