12
2-chloro-1-butene[B3LYP/aug-cc-pVTZ]
C     2.147973   -1.066945    0.000000
H     2.507268   -2.095782    0.000000
H     2.554206   -0.572788    0.882885
H     2.554206   -0.572788   -0.882885
C     0.621595   -1.051458    0.000000
H     0.241625   -1.595107   -0.869387
H     0.241625   -1.595107    0.869387
C     0.604486    1.490130    0.000000
H     1.683307    1.546561    0.000000
C     0.000000    0.312724    0.000000
Cl    -1.769241    0.256602    0.000000
H     0.050536    2.416069    0.000000
