22
2-butoxyethanol[B3LYP/aug-cc-pVTZ]
C     4.089165    0.588477    0.122469
C     2.923903   -0.328181   -0.246075
C     1.567017    0.231891    0.182347
C     0.411798   -0.680523   -0.186833
C    -3.172463   -0.056120    0.344075
C    -1.956993   -0.859646   -0.067429
O    -3.273599    1.167332   -0.370804
O    -0.806302   -0.090619    0.241637
H     3.988063    1.565495   -0.353995
H     4.136511    0.751152    1.200924
H     5.043295    0.163461   -0.191317
H     2.923021   -0.497172   -1.326931
H     3.074567   -1.308953    0.214777
H     1.555650    0.393751    1.263323
H     1.405218    1.208369   -0.282062
H     0.381813   -0.843154   -1.272776
H     0.532797   -1.663858    0.288024
H    -3.138051    0.127329    1.424009
H    -4.077395   -0.622897    0.124143
H    -1.992298   -1.069512   -1.143946
H    -1.937954   -1.816743    0.471425
H    -2.430595    1.623640   -0.273584
