10
2-butynedioicacid[B3LYP/aug-cc-pVTZ]
O     0.456164    2.811298    0.519791
O    -0.456164   -2.811298    0.519791
O    -1.460125    2.429632   -0.552434
O     1.460125   -2.429632   -0.552434
C    -0.456164    2.004868   -0.060552
C     0.456164   -2.004868   -0.060552
C    -0.123481    0.588917   -0.035196
C     0.123481   -0.588917   -0.035196
H     1.213127    2.300420    0.835627
H    -1.213127   -2.300420    0.835627
