13
2-chlorophenol[B3LYP/aug-cc-pVTZ]
C     1.592286   -1.728677    0.000000
C     2.181509   -0.467693    0.000000
C     0.212578   -1.863151    0.000000
C     1.379088    0.665360    0.000000
C    -0.604239   -0.733979    0.000000
C     0.000000    0.525088    0.000000
O    -1.948598   -0.906903    0.000000
Cl    -1.036509    1.945558    0.000000
H     2.211530   -2.615032    0.000000
H     3.256995   -0.363392    0.000000
H    -0.258879   -2.835831    0.000000
H     1.812238    1.655014    0.000000
H    -2.379775   -0.041703    0.000000
