11
2-fluoro-1H-triazine[B3LYP/aug-cc-pVTZ]
F    -2.150096   -0.001053    0.020213
N    -0.814685    0.069525   -0.443341
N    -0.277930    1.215684    0.168577
N    -0.249750   -1.157396    0.094708
C     1.005130    1.204416    0.110976
C     1.127688   -1.139416    0.040064
C     1.779078    0.018424   -0.196713
H    -0.688110   -1.456788    0.966414
H     1.504722    2.099325    0.462256
H     1.610499   -2.086619    0.240445
H     2.848926    0.058329   -0.316594
