16
2-ethylpyrazine[B3LYP/aug-cc-pVTZ]
C     2.233334   -0.116230    0.218263
C     1.430378   -1.225938   -0.017669
C     0.433277    1.226506   -0.053715
C    -0.386763    0.119094   -0.289925
C    -2.716909   -0.220171    0.627717
C    -1.861257    0.258329   -0.552378
N     1.734306    1.117813    0.199732
N     0.129285   -1.113947   -0.269666
H     3.291804   -0.223926    0.422137
H     1.847245   -2.226480   -0.005825
H     0.020691    2.228991   -0.073988
H    -2.497551   -1.261629    0.860291
H    -3.777994   -0.138114    0.391141
H    -2.522970    0.375105    1.521205
H    -2.091480    1.300250   -0.781301
H    -2.107242   -0.330802   -1.437880
