14
2-ethyl-acrolein[B3LYP/aug-cc-pVTZ]
C     2.315360   -0.488363    0.000127
C     1.228339    0.539082    0.000162
C    -0.105961    0.377961    0.000037
C    -1.055394    1.543354    0.000099
C    -0.727198   -0.958438   -0.000171
O    -1.927501   -1.139157   -0.000289
H     2.957003   -0.350602    0.874410
H     1.962408   -1.515125   -0.000023
H     2.957142   -0.350395   -0.874021
H     1.592453    1.563287    0.000311
H    -1.709375    1.509936    0.872664
H    -1.709240    1.510139   -0.872576
H    -0.516479    2.489320    0.000251
H    -0.044780   -1.824879   -0.000220
