13
2-ethynyl-5-nitrothiophene[B3LYP/aug-cc-pVTZ]
S    -0.341510   -0.991986   -0.000006
O     2.519011   -1.365713   -0.000008
O     3.108200    0.731357    0.000007
N     2.272192   -0.162941    0.000001
C     0.889034    0.218887    0.000002
C     0.400378    1.497039    0.000009
C    -1.005032    1.513710    0.000008
C    -1.562355    0.249687    0.000001
C    -2.927020   -0.091395   -0.000003
C    -4.090699   -0.393484   -0.000005
H     1.038617    2.365715    0.000015
H    -1.603763    2.410935    0.000014
H    -5.119557   -0.656096   -0.000007
