13
2-ethynylpyrimidine-5-carbonitrile[B3LYP/aug-cc-pVTZ]
C     0.000000    0.000000   -3.930784
C     0.000000    0.000000   -2.731540
C     0.000000    0.000000    2.793427
C     0.000000    1.188249    0.632112
C     0.000000   -1.188249    0.632112
C     0.000000    0.000000   -1.302335
C     0.000000    0.000000    1.369921
N     0.000000    0.000000    3.945700
N     0.000000    1.194481   -0.690626
N     0.000000   -1.194481   -0.690626
H     0.000000    0.000000   -4.992828
H     0.000000    2.149383    1.132106
H     0.000000   -2.149383    1.132106
