13
2-fluoro-2-nitro-3H-furan[B3LYP/aug-cc-pVTZ]
F    -0.375818    1.697446    0.222764
O     0.626983    0.220870   -1.127340
O    -2.388585    0.216606   -0.155235
O    -1.228699   -1.610380    0.030610
N    -1.359931   -0.402241   -0.018206
C    -0.021614    0.404745    0.085285
C     0.896960   -0.092476    1.209348
C     1.920548   -0.209156   -0.846755
C     2.155262   -0.394312    0.440990
H     0.482254   -0.975565    1.692874
H     1.010076    0.694126    1.955231
H     2.540130   -0.330936   -1.718095
H     3.084893   -0.718520    0.875072
