13
2-furylmethanol[B3LYP/aug-cc-pVTZ]
O     2.347421   -0.187082   -0.656389
C     1.620033    0.221901    0.509756
C     0.166572    0.196034    0.229739
C    -0.747500    1.169251   -0.020672
C    -2.002371    0.514222   -0.220304
C    -1.758701   -0.811172   -0.075955
O    -0.446384   -1.026217    0.202246
H     3.264764   -0.337168   -0.408291
H     1.894901    1.240412    0.798884
H     1.842877   -0.446236    1.347719
H    -0.548601    2.226247   -0.064386
H    -2.952138    0.969176   -0.441152
H    -2.378300   -1.687460   -0.135014
