11
2-fluoropyridine[B3LYP/aug-cc-pVTZ]
C     0.000000    0.890610    0.000000
C     1.213082    0.212929    0.000000
C     1.150826   -1.170346    0.000000
C    -0.094041   -1.795003    0.000000
C    -1.228714   -0.999639    0.000000
N    -1.183800    0.338362    0.000000
F     0.025740    2.234588    0.000000
H     2.146052    0.755943    0.000000
H     2.060970   -1.754404    0.000000
H    -0.181364   -2.871685    0.000000
H    -2.217635   -1.440986    0.000000
