11
2-isothiocyanatoacetamide[B3LYP/aug-cc-pVTZ]
S     2.745348   -0.356309    0.000063
O    -0.994220   -1.299184    0.000009
N    -3.011806   -0.267700   -0.000097
N     0.394126    1.102920   -0.000391
C    -1.019553    1.122041    0.000287
C    -1.651289   -0.284113    0.000026
C     1.362947    0.407332   -0.000131
H    -1.377130    1.669767   -0.876347
H    -1.376320    1.668960    0.877770
H    -3.544575    0.582927   -0.000097
H    -3.502658   -1.145330   -0.000094
