10
2-isocyanatoethanedithioicacid[B3LYP/aug-cc-pVTZ]
S     2.378504   -0.996830   -0.060055
S     1.032305    1.615124   -0.000766
O    -3.857822   -0.222967   -0.090876
N    -1.504533   -0.005601    0.047838
C     0.996939   -0.123544    0.017628
C    -0.336437   -0.850557    0.141815
C    -2.693129   -0.177700   -0.020459
H    -0.301843    1.818938    0.055450
H    -0.325396   -1.359868    1.107578
H    -0.355645   -1.618027   -0.631648
