12
2-imidazolidinethione[B3LYP/aug-cc-pVTZ]
S     0.000000    0.000000    2.086086
C     0.000000    0.000000    0.422971
N     0.000000    1.095429   -0.390077
C    -0.231274    0.733283   -1.785169
C     0.231274   -0.733283   -1.785169
N     0.000000   -1.095429   -0.390077
H    -0.275915    1.980156   -0.001574
H     0.347846    1.354361   -2.465670
H    -1.290782    0.811565   -2.048808
H     1.290782   -0.811565   -2.048808
H    -0.347846   -1.354361   -2.465670
H     0.275915   -1.980156   -0.001574
