10
2-isothiocyanato-1-3-thiazole[B3LYP/aug-cc-pVTZ]
S    -1.176502    1.188742    0.000000
S     3.433639    0.144524    0.000000
N    -1.439432   -1.384848    0.000000
N     0.798861   -0.695105    0.000000
C    -0.535866   -0.452056    0.000000
C    -2.765808    0.515362    0.000000
C    -2.694196   -0.843269    0.000000
C     1.922253   -0.288941    0.000000
H    -3.639896    1.143256    0.000000
H    -3.548597   -1.502417    0.000000
