22
2-isobutylpyrazine[B3LYP/aug-cc-pVTZ]
C     2.780946    0.034090   -0.496412
C     2.081979    1.196215   -0.197941
C     1.046417   -1.191362    0.282233
C     0.324882   -0.029326    0.581800
C    -2.293729    1.300701   -0.581142
C    -2.259009   -1.219791   -0.767466
C    -1.051716   -0.083716    1.186804
C    -2.235332   -0.022090    0.185648
N     2.262542   -1.168677   -0.252894
N     0.864183    1.170413    0.338964
H     3.772639    0.071644   -0.930765
H     2.515504    2.170975   -0.390188
H     0.623598   -2.167465    0.490849
H    -1.429831    1.424092   -1.234865
H    -2.314015    2.154514    0.096934
H    -3.190666    1.339309   -1.201754
H    -3.158002   -1.199555   -1.385241
H    -1.400440   -1.213979   -1.441787
H    -2.251536   -2.166685   -0.224003
H    -1.144990   -1.004046    1.767797
H    -1.141864    0.752268    1.881855
H    -3.134101   -0.081540    0.807527
