14
2-methoxyethanamine[B3LYP/aug-cc-pVTZ]
C     2.394338   -0.198378    0.010397
C    -1.213963    0.512011   -0.011820
C     0.040704   -0.342423    0.060690
N    -2.400419   -0.343513    0.068122
O     1.170345    0.499841   -0.068361
H     3.193257    0.531998   -0.100922
H     2.481000   -0.946782   -0.786913
H     2.505379   -0.705551    0.976378
H    -1.223477    1.192544    0.840371
H    -1.165713    1.129196   -0.917074
H     0.034198   -1.091761   -0.745001
H     0.066402   -0.885403    1.013302
H    -2.543778   -0.851532   -0.796036
H    -3.233572    0.205897    0.230329
