16
2-methyl-1-propanamine[B3LYP/aug-cc-pVTZ]
N    -2.017293   -0.027830   -0.195165
H    -2.820908   -0.592269    0.048212
H    -2.147266    0.872192    0.248999
C    -0.776018   -0.669821    0.249843
H    -0.672045   -0.698833    1.345476
H    -0.809076   -1.707432   -0.088935
C     1.722505   -0.804982    0.017003
H     1.877218   -0.832599    1.098733
H     1.649672   -1.835748   -0.334919
H     2.613446   -0.362479   -0.430967
C     0.606424    1.454776    0.111148
H     1.501894    1.911846   -0.313053
H    -0.244796    2.059218   -0.204351
H     0.687235    1.520067    1.200032
C     0.469897   -0.001587   -0.340529
H     0.348831   -0.009471   -1.427859
