18
2-methoxyaniline[B3LYP/aug-cc-pVTZ]
C    -2.271210   -0.667396    0.006455
C    -1.340708   -1.693820    0.003564
C    -1.847275    0.658049   -0.000251
C     0.022067   -1.392654   -0.001131
C    -0.492758    0.980526   -0.008667
C     0.445302   -0.071805   -0.005646
C     2.767671   -0.660845    0.004342
N    -0.043263    2.295390   -0.074695
O     1.756422    0.332204    0.000731
H    -3.329530   -0.889156    0.012129
H    -1.659536   -2.726611    0.006451
H    -2.575105    1.460127   -0.006553
H     0.743830   -2.195462    0.001739
H     2.710088   -1.289626   -0.887662
H     2.704278   -1.291535    0.894876
H     3.714636   -0.127595    0.007528
H    -0.670523    2.990656    0.293401
H     0.914787    2.431518    0.203116
