17
2-methyl-1-4-5-6-tetrahydropyrimidine[B3LYP/aug-cc-pVTZ]
C     0.941514   -0.098483   -0.014842
C    -1.781018   -0.019406    0.390258
C    -1.091888   -1.260357   -0.181491
C    -1.137073    1.235394   -0.190517
C     2.440033   -0.025730    0.105285
N     0.363471   -1.238193   -0.066973
N     0.305683    1.121283   -0.051204
H    -2.849215   -0.030386    0.168731
H    -1.669794   -0.010999    1.476831
H    -1.454663   -2.156545    0.325164
H    -1.359693   -1.380641   -1.237877
H    -1.420985    1.347734   -1.243241
H    -1.475506    2.129505    0.335358
H     2.734140    0.509347    1.011023
H     2.874653    0.500871   -0.747674
H     2.842634   -1.033035    0.140948
H     0.864952    1.954010   -0.054174
