12
2-methyl-1-propene[B3LYP/aug-cc-pVTZ]
C     0.000000    0.000000    1.454540
C     0.000000    0.000000    0.123825
C     0.000000    1.272551   -0.676777
C     0.000000   -1.272551   -0.676777
H     0.000000   -0.922142    2.021334
H     0.000000    0.922142    2.021334
H     0.876282    1.321528   -1.329331
H    -0.876282    1.321528   -1.329331
H     0.000000    2.153807   -0.037106
H    -0.876282   -1.321528   -1.329331
H     0.876282   -1.321528   -1.329331
H     0.000000   -2.153807   -0.037106
