12
2-methyl-1H-imidazole[B3LYP/aug-cc-pVTZ]
C    -0.211213    2.098944    0.000000
H    -0.763664    2.429115    0.882489
H     0.758858    2.588726    0.000000
H    -0.763664    2.429115   -0.882489
N    -1.022980   -0.282177    0.000000
H    -2.004898   -0.069530    0.000000
C     0.000000    0.624449    0.000000
N     1.160665    0.009381    0.000000
C     0.880939   -1.338149    0.000000
H     1.664738   -2.075911    0.000000
C    -0.467672   -1.544500    0.000000
H    -1.067486   -2.436412    0.000000
