14
2-methyl-1-3-dioxolane[B3LYP/aug-cc-pVTZ]
C    -2.091969    0.010752   -0.180597
H    -2.635094   -0.893942    0.090351
H    -2.624543    0.872125    0.220077
H    -2.045431    0.092193   -1.265498
C    -0.698672   -0.035879    0.388299
H    -0.716959   -0.130269    1.485995
O     0.030683    1.138373    0.045279
O     0.034322   -1.115337   -0.154500
C     1.399093   -0.761458    0.034643
H     1.998042   -1.291310   -0.702163
H     1.730930   -1.043846    1.039807
C     1.397982    0.765704   -0.146745
H     1.700345    1.065105   -1.151226
H     2.034073    1.270939    0.582825
