18
2-methyl-2-methylthio-propane[B3LYP/aug-cc-pVTZ]
S    -0.692409   -1.055906    0.000000
C    -0.026867    0.686541    0.000000
C    -1.284091    1.562967    0.000000
C     0.800267   -2.097232    0.000000
H     0.440552   -3.124595    0.000000
H    -0.998307    2.616921    0.000000
C     0.800267    0.953171    1.259728
C     0.800267    0.953171   -1.259728
H     1.404795   -1.943574    0.891889
H     1.404795   -1.943574   -0.891889
H     0.214552    0.768111   -2.159589
H     0.214552    0.768111    2.159589
H     1.131617    1.995073    1.274003
H     1.131617    1.995073   -1.274003
H     1.692762    0.328379    1.299095
H     1.692762    0.328379   -1.299095
H    -1.895101    1.377247   -0.883681
H    -1.895101    1.377247    0.883681
