18
2-methyl-1-2-propanediamine[B3LYP/aug-cc-pVTZ]
C    -0.376341    0.220360    0.000000
H     1.502631    0.816125    0.875477
H     1.502631    0.816125   -0.875477
N     1.913976   -1.014914    0.000000
H     1.709887   -1.574258    0.817358
H     1.709887   -1.574258   -0.817358
N    -0.906035    1.595947    0.000000
H    -0.583445    2.106254   -0.814987
H    -0.583445    2.106254    0.814987
C     1.179166    0.245313    0.000000
C    -0.906035   -0.473601   -1.257115
C    -0.906035   -0.473601    1.257115
H    -0.558883    0.037001   -2.158942
H    -0.558883    0.037001    2.158942
H    -0.574785   -1.511227    1.310395
H    -0.574785   -1.511227   -1.310395
H    -1.995459   -0.462925   -1.263115
H    -1.995459   -0.462925    1.263115
