18
2-methyl-2-butanethiol[B3LYP/aug-cc-pVTZ]
H    -2.241590   -1.215243   -0.387645
H    -0.912425   -2.289504   -0.826315
H    -1.300954   -0.896147   -1.846390
C    -1.239595   -1.246048   -0.816810
C    -0.259075   -0.399357   -0.001092
H     1.407768   -1.489975   -0.756299
H     1.007906   -0.079353   -1.707859
C     1.124715   -0.435306   -0.681589
H     2.022628    1.398388    0.091245
H     3.169518    0.252206   -0.593787
H     2.473612   -0.046308    0.992131
C     2.255992    0.338004   -0.004285
H     0.185174   -1.926656    1.466143
H    -1.196829   -0.915576    1.889107
H     0.434562   -0.280652    2.066600
C    -0.201951   -0.903990    1.442827
H    -2.042025    1.174320    0.484066
S    -0.817991    1.387168   -0.031582
