15
2-methyl-butanenitrile[B3LYP/aug-cc-pVTZ]
C    -1.519478   -0.306091    0.116403
N    -2.579509   -0.707080   -0.081472
C    -0.053322    1.653906   -0.147603
H    -0.178135    1.700270   -1.229566
H    -0.816479    2.281556    0.309582
H     0.921467    2.065882    0.106210
C     2.314757   -0.422465    0.087354
H     2.455299   -0.421432    1.170184
H     2.992332   -1.166370   -0.331717
H     2.625607    0.550800   -0.292013
C     0.870992   -0.753554   -0.283413
H     0.745929   -0.734085   -1.368367
H     0.638768   -1.770647    0.035713
C    -0.164996    0.202947    0.349922
H    -0.015943    0.195124    1.434302
