21
3R-2-methylpentan-3-ol[B3LYP/aug-cc-pVTZ]
C    -2.743598    0.279380    0.263321
C     1.527637    1.583398    0.042847
C     2.226050   -0.822775    0.228502
C    -1.371578    0.649289   -0.298578
C     1.159473    0.137171   -0.308936
C    -0.242383   -0.258067    0.197134
O    -0.529559   -1.629626   -0.112600
H    -3.515575    0.944672   -0.125339
H    -2.752787    0.361074    1.352137
H    -3.015995   -0.743733    0.008715
H     0.893332    2.312783   -0.458542
H     1.450647    1.753470    1.119924
H     2.558304    1.792091   -0.246918
H     3.203847   -0.588092   -0.194843
H     1.989120   -1.858593   -0.004759
H     2.306790   -0.736724    1.315244
H    -1.393282    0.611750   -1.394424
H    -1.144600    1.683054   -0.034580
H     1.140378    0.049342   -1.403355
H    -0.228904   -0.235027    1.291831
H    -0.588412   -1.719433   -1.070029
