16
2-methyl-2-propanamine[B3LYP/aug-cc-pVTZ]
N     0.544724    1.387269    0.000000
H     0.216989    1.895686    0.813925
H     0.216989    1.895686   -0.813925
C    -1.527556   -0.018978    0.000000
H    -1.923151    0.487103    0.883105
H    -1.923151    0.487103   -0.883105
H    -1.910040   -1.041945    0.000000
C     0.544724   -0.686055    1.255867
H     1.634333   -0.676871    1.262856
H     0.196491   -0.179088    2.158818
H     0.203288   -1.720826    1.303577
C     0.011620    0.010930    0.000000
C     0.544724   -0.686055   -1.255867
H     1.634333   -0.676871   -1.262856
H     0.203288   -1.720826   -1.303577
H     0.196491   -0.179088   -2.158818
