13
2-methylpyrazine[B3LYP/aug-cc-pVTZ]
C    -0.001868   -1.820771    0.000000
C    -1.182467   -1.087059    0.000000
C     1.179811    0.108531    0.000000
C     0.000000    0.858405    0.000000
C     0.008652    2.358272    0.000000
N     1.186439   -1.221482    0.000000
N    -1.186506    0.242772    0.000000
H    -0.015053   -2.903968    0.000000
H    -2.145893   -1.583765    0.000000
H     2.144697    0.602719    0.000000
H    -0.515539    2.739063    0.877425
H     1.023030    2.753583    0.000000
H    -0.515539    2.739063   -0.877425
