15
2-methylpropan-2-ol[B3LYP/aug-cc-pVTZ]
C    -0.486076   -0.705434    1.261168
C    -0.486076   -0.705434   -1.261168
C     1.521674    0.142791    0.000000
C     0.001813    0.012259    0.000000
O    -0.486076    1.369657    0.000000
H    -1.577070   -0.763138    1.276432
H    -0.099320   -1.724561    1.310729
H    -0.160405   -0.167882    2.151574
H    -0.160405   -0.167882   -2.151574
H    -1.577070   -0.763138   -1.276432
H    -0.099320   -1.724561   -1.310729
H     1.854033    0.688346    0.883017
H     1.994672   -0.839511    0.000000
H     1.854033    0.688346   -0.883017
H    -1.448562    1.351622    0.000000
