20
2-methyl-pentane[B3LYP/aug-cc-pVTZ]
C     2.838715   -0.210284    0.151499
C    -1.452331    1.374908    0.194977
C    -2.150229   -1.037838    0.031809
C     1.495560    0.356257   -0.307569
C     0.304604   -0.477105    0.169426
C    -1.071855   -0.012797   -0.331369
H     2.897031   -0.252318    1.241150
H     2.988894   -1.224454   -0.224592
H     3.671051    0.400513   -0.201048
H    -0.743775    2.142198   -0.116896
H    -1.487672    1.377435    1.287781
H    -2.438033    1.672153   -0.167266
H    -2.241995   -1.138272    1.116369
H    -3.126439   -0.741164   -0.355760
H    -1.914534   -2.023603   -0.373148
H     1.400426    1.383805    0.050622
H     1.479386    0.411612   -1.400581
H     0.457236   -1.513257   -0.149856
H     0.293963   -0.498723    1.265583
H    -1.022318    0.045239   -1.424998
