16
2-nitroaniline[B3LYP/aug-cc-pVTZ]
C     2.063464   -1.503763    0.000000
C     2.365819   -0.135580    0.000000
C     0.760060   -1.938693    0.000000
C     1.333452    0.772214    0.000000
C    -0.327896   -1.035393    0.000000
C     0.000000    0.344759    0.000000
N    -1.591077   -1.520223    0.000000
N    -1.021402    1.372732    0.000000
O    -0.674531    2.546284    0.000000
O    -2.211698    1.027891    0.000000
H     2.862699   -2.232880    0.000000
H     3.391203    0.202815    0.000000
H     0.541477   -2.998734    0.000000
H     1.518872    1.834417    0.000000
H    -1.742811   -2.511061    0.000000
H    -2.363649   -0.876785    0.000000
