15
2-nitrophenol[B3LYP/aug-cc-pVTZ]
C    -1.835597   -1.471168    0.106759
C    -2.531726   -0.267314    0.040621
C    -0.452973   -1.452868    0.080538
C    -1.850063    0.934346   -0.048731
C     0.235671   -0.246214    0.013147
C    -0.453434    0.973310   -0.060215
N     1.703827   -0.306080    0.022093
O     2.221476   -1.316606   -0.438893
O     2.315378    0.632295    0.504570
O     0.220545    2.138083   -0.177817
H    -2.364482   -2.410267    0.175643
H    -3.612989   -0.262929    0.054068
H     0.123142   -2.364653    0.116206
H    -2.397052    1.867174   -0.114478
H    -0.405869    2.862503   -0.281682
