10
2-propene-1-ol[B3LYP/aug-cc-pVTZ]
C     1.798671    0.026140   -0.256881
C     0.665074   -0.290241    0.357148
C    -0.599255    0.505881    0.255208
O    -1.694874   -0.274273   -0.232077
H     2.690246   -0.577939   -0.155580
H     1.876485    0.910633   -0.878456
H     0.608435   -1.184136    0.970445
H    -0.440048    1.391472   -0.369265
H    -0.916428    0.847380    1.242042
H    -1.446641   -0.643903   -1.085425
