16
2-pentanone[B3LYP/aug-cc-pVTZ]
C     1.137455    0.146005   -0.002101
C     2.339985   -0.775148    0.003438
C    -2.754057   -0.294448   -0.000481
C    -0.225440   -0.525525   -0.005704
C    -1.410723    0.432588    0.006368
O     1.262714    1.350118   -0.002835
H     2.311679   -1.443961   -0.859263
H     2.326989   -1.406936    0.894211
H     3.256222   -0.191143   -0.015540
H    -2.862511   -0.940914    0.873136
H    -2.864356   -0.920583   -0.888559
H    -3.583566    0.413374    0.008555
H    -0.263760   -1.203516    0.854803
H    -0.266645   -1.183799   -0.881400
H    -1.338759    1.077971    0.883375
H    -1.340329    1.097732   -0.855756
