11
propan-2-imine[B3LYP/aug-cc-pVTZ]
C     0.000000    0.160391    0.000000
C     1.341166   -0.522197    0.000000
C    -1.204165   -0.750105    0.000000
N    -0.046207    1.430440    0.000000
H     2.139324    0.215075    0.000000
H     1.444083   -1.166052    0.876901
H     1.444083   -1.166052   -0.876901
H    -2.134256   -0.183538    0.000000
H    -1.190635   -1.402345    0.876352
H    -1.190635   -1.402345   -0.876352
H    -1.010521    1.763644    0.000000
