12
2-propanethiol[B3LYP/aug-cc-pVTZ]
C     0.054241    1.100477    1.268813
C     0.054241    1.100477   -1.268813
C    -0.409424    0.392082    0.000000
S     0.054241   -1.399668    0.000000
H    -0.309019    2.131146    1.280502
H    -0.310858    0.595967    2.161592
H     1.144294    1.131346    1.319556
H    -0.309019    2.131146   -1.280502
H    -0.310858    0.595967   -2.161592
H     1.144294    1.131346   -1.319556
H    -1.500071    0.339611    0.000000
H     1.389046   -1.220063    0.000000
