12
2-propanol[B3LYP/aug-cc-pVTZ]
C     0.287231   -0.610477    1.268740
C     0.287231   -0.610477   -1.268740
C     0.287231    0.234800    0.000000
O    -0.802494    1.166277    0.000000
H     1.168231   -1.253175    1.311423
H     0.281273    0.027361    2.152009
H    -0.596203   -1.253979    1.303814
H     1.168231   -1.253175   -1.311423
H     0.281273    0.027361   -2.152009
H    -0.596203   -1.253979   -1.303814
H     1.172769    0.873582    0.000000
H    -1.629582    0.672719    0.000000
