10
2-sulfanyl-3H-oxadiazole[B3LYP/aug-cc-pVTZ]
S    -1.764262   -0.028731    0.281446
O     0.586821   -1.114709   -0.509303
N    -0.251683    0.006912   -0.828675
N     0.614061    1.105043   -0.503142
C     1.485936   -0.681423    0.451316
C     1.501411    0.645466    0.492509
H    -1.126094    0.003515    1.472452
H     0.064649    1.928199   -0.298450
H     2.039233   -1.439683    0.972831
H     2.095103    1.317395    1.084212
