8
2-propyn-1-ol[B3LYP/aug-cc-pVTZ]
C    -0.657272   -0.503422    0.000000
C     0.000000    0.795889    0.000000
C     0.514208    1.878089    0.000000
O     0.326252   -1.539360    0.000000
H    -1.299934   -0.577228    0.884602
H    -1.299934   -0.577228   -0.884602
H     0.977878    2.832712    0.000000
H    -0.129644   -2.386711    0.000000
