17
2-pyridyl-acetate[B3LYP/aug-cc-pVTZ]
C    -2.338453    1.106760    0.151750
C    -2.887654   -0.169877    0.191707
C    -0.990243    1.249733   -0.135297
C    -2.057419   -1.252130   -0.061697
C    -0.261460    0.091175   -0.369070
C     2.022769   -0.010003    0.246139
C     3.397877   -0.012120   -0.356274
N    -0.757678   -1.126595   -0.342613
O     1.751515   -0.164505    1.402471
O     1.078492    0.204899   -0.727454
H    -2.950154    1.977738    0.343578
H    -3.933897   -0.324461    0.412893
H    -0.509700    2.215713   -0.177084
H    -2.444289   -2.263759   -0.042752
H     3.510688   -0.894802   -0.986722
H     4.140400   -0.030768    0.435030
H     3.538129    0.862122   -0.990340
