12
2-pyridinol[B3LYP/aug-cc-pVTZ]
N    -1.176140    0.295001    0.000000
C     0.000000    0.900809    0.000000
C     1.223975    0.226351    0.000000
C     1.190077   -1.154667    0.000000
C    -0.039417   -1.813282    0.000000
C    -1.189267   -1.042689    0.000000
O     0.005822    2.254025    0.000000
H     2.149101    0.783058    0.000000
H     2.113772   -1.717700    0.000000
H    -0.101257   -2.891524    0.000000
H    -2.168354   -1.506394    0.000000
H    -0.919060    2.536214    0.000000
