10
2-sulfanyl-3H-thiadiazole[B3LYP/aug-cc-pVTZ]
S    -0.810277   -1.201087   -0.200139
S     1.913381   -0.044710    0.323269
N     0.443660   -0.088164   -0.739013
N    -0.252291    1.168391   -0.769326
C    -1.623704    0.083578    0.709655
C    -1.186766    1.266178    0.270196
H     1.326453    0.217777    1.515056
H     0.406206    1.926467   -0.878431
H    -2.353808   -0.114528    1.473493
H    -1.505287    2.242921    0.599065
