10
2-thioxo-1-3-thiazolidin-5-one[B3LYP/aug-cc-pVTZ]
S     0.301124   -1.194128   -0.000003
S    -2.516695   -0.103145   -0.000004
O     2.855536   -0.380914    0.000003
N    -0.251435    1.319996    0.000004
C    -0.891421    0.133788   -0.000001
C     1.703099   -0.063528    0.000002
C     1.190060    1.371895    0.000006
H    -0.815242    2.155712    0.000006
H     1.584859    1.877534   -0.885017
H     1.584856    1.877528    0.885033
