10
2-sulfanyl-1-3-thiazole-5-carbonitrile[B3LYP/aug-cc-pVTZ]
S    -0.132326   -1.067056   -0.000002
S     2.794229   -0.264794   -0.000005
N     0.642381    1.397235    0.000001
N    -3.851613   -0.306271    0.000006
C    -1.339600    0.198368    0.000002
C     1.094765    0.176601   -0.000002
C    -0.717729    1.417421    0.000003
C    -2.720759   -0.076305    0.000004
H     3.213634    1.014221   -0.000004
H    -1.239521    2.362120    0.000006
