13
C5H5NO2[B3LYP/aug-cc-pVTZ]
O     3.378898   -1.121353    0.151039
O    -3.378897   -1.121355    0.151039
N     0.000000    0.726298   -0.101503
C     1.173373    0.061418   -0.031423
C    -1.173373    0.061419   -0.031423
C     2.234557   -0.498966   -0.039656
C    -2.234557   -0.498966   -0.039656
C     0.000000    2.188036    0.049856
H     3.788790   -1.339293   -0.695372
H    -3.788797   -1.339280   -0.695372
H    -0.000002    2.478463    1.103218
H     0.888064    2.590021   -0.432378
H    -0.888061    2.590022   -0.432382
