16
2-2-furylfuran[B3LYP/aug-cc-pVTZ]
C    -0.340935    2.925198    0.000000
C     0.340935   -2.925198    0.000000
C    -0.990750    1.654854    0.000000
C     0.990750   -1.654854    0.000000
C     0.990750    2.673861    0.000000
C    -0.990750   -2.673861    0.000000
C     0.001025    0.717171    0.000000
C    -0.001025   -0.717171    0.000000
O     1.221122    1.331017    0.000000
O    -1.221122   -1.331017    0.000000
H    -0.806983    3.895142    0.000000
H     0.806983   -3.895142    0.000000
H    -2.047458    1.455961    0.000000
H     2.047458   -1.455961    0.000000
H     1.864288    3.299524    0.000000
H    -1.864288   -3.299524    0.000000
