11
2-2-dichloro-propane[B3LYP/aug-cc-pVTZ]
C     0.000000    0.000000    0.352403
Cl     1.474178    0.000000   -0.722182
Cl    -1.474178    0.000000   -0.722182
C     0.000000    1.271429    1.177208
C     0.000000   -1.271429    1.177208
H     0.000000    2.149972    0.537521
H     0.000000   -2.149972    0.537521
H    -0.887342    1.294212    1.809560
H     0.887342    1.294212    1.809560
H     0.887342   -1.294212    1.809560
H    -0.887342   -1.294212    1.809560
