18
2-2-dimethyl-1-propanethiol[B3LYP/aug-cc-pVTZ]
C     0.674889    0.424910    0.000000
C     1.189289    1.875357    0.000000
H     2.280421    1.893123    0.000000
S    -1.677881   -1.162383    0.000000
H    -2.940602   -0.701861    0.000000
C    -0.864560    0.499457    0.000000
C     1.189289   -0.290385    1.258329
C     1.189289   -0.290385   -1.258329
H    -1.202991    1.037483    0.884380
H    -1.202991    1.037483   -0.884380
H     2.280323   -0.281639    1.280304
H     2.280323   -0.281639   -1.280304
H     0.862904   -1.329613    1.294987
H     0.862904   -1.329613   -1.294987
H     0.831671    0.202325    2.164531
H     0.831671    0.202325   -2.164531
H     0.846646    2.418019   -0.883096
H     0.846646    2.418019    0.883096
