17
2-2-dimethyl-propane[B3LYP/aug-cc-pVTZ]
C     0.000000    0.000000    0.000000
C     0.886726    0.886726    0.886726
C    -0.886726   -0.886726    0.886726
C     0.886726   -0.886726   -0.886726
C    -0.886726    0.886726   -0.886726
H    -1.529798    0.282357   -1.529798
H     1.529798    1.529798    0.282357
H     1.529798   -0.282357   -1.529798
H     1.529798    0.282357    1.529798
H    -1.529798   -0.282357    1.529798
H     1.529798   -1.529798   -0.282357
H    -0.282357    1.529798   -1.529798
H     0.282357    1.529798    1.529798
H     0.282357   -1.529798   -1.529798
H    -0.282357   -1.529798    1.529798
H    -1.529798    1.529798   -0.282357
H    -1.529798   -1.529798    0.282357
