11
2-2-dicyanoacetamide[B3LYP/aug-cc-pVTZ]
O    -2.033653    0.612083   -0.561323
N    -1.365160   -1.096229    0.782146
N     1.209013    2.325640    0.584750
N     1.852388   -1.914574   -0.073469
C     0.319024    0.144506   -0.545846
C    -1.174935   -0.099455   -0.102612
C     0.820959    1.367480    0.085232
C     1.211308   -0.986418   -0.292477
H     0.261923    0.314072   -1.623641
H    -0.620032   -1.690702    1.101554
H    -2.304488   -1.280568    1.092902
