14
2-2-3-3-tetrabromobutane[B3LYP/aug-cc-pVTZ]
C     1.170094    1.608024    0.000000
C    -1.170094   -1.608024    0.000000
C    -0.094898    0.771068    0.000000
C     0.094898   -0.771068    0.000000
Br    -1.170094    1.298432    1.597049
Br    -1.170094    1.298432   -1.597049
Br     1.170094   -1.298432   -1.597049
Br     1.170094   -1.298432    1.597049
H     1.761250    1.388621    0.886339
H     1.761250    1.388621   -0.886339
H     0.910325    2.662377    0.000000
H    -0.910325   -2.662377    0.000000
H    -1.761250   -1.388621   -0.886339
H    -1.761250   -1.388621    0.886339
