14
2-2-3-3-tetrachlorobutane[B3LYP/aug-cc-pVTZ]
C     1.119788    1.638607    0.000000
C    -1.119788   -1.638607    0.000000
C    -0.125681    0.772915    0.000000
C     0.125681   -0.772915    0.000000
Cl    -1.119788    1.196241    1.462338
Cl    -1.119788    1.196241   -1.462338
Cl     1.119788   -1.196241   -1.462338
Cl     1.119788   -1.196241    1.462338
H     1.713774    1.435038    0.887218
H     1.713774    1.435038   -0.887218
H     0.825079    2.684199    0.000000
H    -0.825079   -2.684199    0.000000
H    -1.713774   -1.435038   -0.887218
H    -1.713774   -1.435038    0.887218
