12
C4H4N2O2[B3LYP/aug-cc-pVTZ]
O     0.662791    2.150274   -1.440821
O    -0.662791   -2.150274   -1.440821
N    -1.126502    1.290107    1.322386
N     1.126502   -1.290107    1.322386
C    -0.235728    0.702221    0.369706
C     0.235728   -0.702221    0.369706
C     0.235728    1.488873   -0.589450
C    -0.235728   -1.488873   -0.589450
H    -0.752204    1.293584    2.261984
H    -2.038657    0.851873    1.326339
H     0.752204   -1.293584    2.261984
H     2.038657   -0.851873    1.326339
