15
2-2oxohydrazinyl-3-sulfanylpropanoicacid[B3LYP/aug-cc-pVTZ]
S    -2.712144   -0.669688    0.037222
O     0.933735    2.198989    0.455731
O    -0.813211    1.753882   -0.838351
O     3.132632   -1.292925   -0.368579
N     1.364274   -0.584057    0.618722
N     2.135784   -0.617460   -0.478845
C     0.002543   -0.066606    0.511530
C    -0.932563   -0.985226   -0.286130
C    -0.000890    1.370282   -0.050456
H    -0.365039    0.012010    1.536683
H    -0.768377   -0.838439   -1.350349
H    -0.717791   -2.023048   -0.047362
H     1.618464   -1.240568    1.355307
H    -2.888807   -1.681239    0.906858
H     1.575667    1.706649    0.984110
