12
2-3-dihydrothiophene-2-ol[B3LYP/aug-cc-pVTZ]
S    -0.392972   -1.265072    0.210669
C     0.940796    0.017803    0.413655
C     0.214759    1.365119    0.480256
C    -1.100528    1.217508   -0.232047
C    -1.506870   -0.035217   -0.406130
O     1.821436    0.051740   -0.690597
H     1.477232   -0.222620    1.331943
H     0.856678    2.126104    0.033990
H    -1.678395    2.075102   -0.546595
H    -2.430535   -0.355577   -0.862849
H     0.048224    1.648671    1.524486
H     2.153911   -0.835724   -0.861306
