9
dihydrothiadiazole[B3LYP/aug-cc-pVTZ]
S    -1.237044    0.001448   -0.107671
N     0.008561   -1.244800    0.162871
N     1.291262   -0.667661   -0.105066
C    -0.008423    1.263519    0.104972
C     1.217607    0.751160    0.046079
H    -0.002263   -1.404163    1.165699
H     1.571441   -0.928185   -1.047847
H    -0.273152    2.302314    0.208260
H     2.142819    1.306025    0.085693
