14
2-3-dihydro-5-methyl-furan[B3LYP/aug-cc-pVTZ]
C    -1.368345   -0.812936    0.080163
H    -1.906003   -1.388570   -0.670058
H    -1.661689   -1.161174    1.072427
O     0.046311   -1.092004   -0.079668
C    -1.532303    0.714437   -0.061297
H    -2.174500    1.121723    0.721203
H    -1.979486    0.993680   -1.020378
C    -0.096949    1.168984    0.041568
H     0.227483    2.195282    0.084198
C     2.190006    0.000476    0.008583
H     2.539202   -0.503258   -0.895119
H     2.646994    0.986271    0.059826
H     2.528636   -0.591735    0.860936
C     0.709071    0.109674    0.001700
