18
2-3-dimethyl-1-butene[B3LYP/aug-cc-pVTZ]
C    -1.071798    1.395295   -0.516943
H    -2.097308    1.655846   -0.745207
H    -0.324065    2.139068   -0.752121
C    -1.846494   -0.781611    0.354048
H    -1.822725   -1.041562    1.416022
H    -2.835490   -0.389471    0.122101
H    -1.717430   -1.714418   -0.199086
C    -0.767616    0.217558    0.024788
C     1.126951   -1.341248   -0.574524
H     2.119063   -1.686706   -0.279687
H     0.459313   -2.201864   -0.554699
H     1.185647   -0.984025   -1.604310
C     0.651228   -0.212141    0.359200
H     0.614475   -0.630270    1.372557
C     1.673172    0.925370    0.370849
H     1.815739    1.345990   -0.626310
H     1.368190    1.732615    1.036949
H     2.641935    0.555459    0.709287
