10
2-3-furo-1-3-2-dioxathiole[B3LYP/aug-cc-pVTZ]
S     1.989323   -0.009549   -0.145290
O     0.854042   -1.274861    0.212013
O     0.929171    1.296398    0.203214
O    -1.541919   -1.139480   -0.026054
C    -0.315704   -0.615131   -0.021948
C    -0.319252    0.726214   -0.022953
C    -1.682955    1.131606   -0.022667
C    -2.386914   -0.036529   -0.038427
H    -2.098136    2.123419   -0.033853
H    -3.432428   -0.264049   -0.118917
