16
2-3-dimethylbutadiene[B3LYP/aug-cc-pVTZ]
C     0.046940    0.737664    0.000000
C    -0.046940   -0.737664    0.000000
C     1.229298   -1.540526    0.000000
C    -1.229298   -1.365802   -0.000001
C    -1.229298    1.540526    0.000000
C     1.229298    1.365802   -0.000001
H     1.011005   -2.606697    0.000002
H     1.839074   -1.319891   -0.878346
H     1.839074   -1.319889    0.878347
H    -1.285187   -2.445953   -0.000001
H    -2.170393   -0.836461   -0.000001
H    -1.839074    1.319889    0.878347
H    -1.011005    2.606697    0.000002
H    -1.839074    1.319891   -0.878346
H     2.170393    0.836461   -0.000001
H     1.285187    2.445953   -0.000001
