24
2-3-dimethylnaphthalene[B3LYP/aug-cc-pVTZ]
C     0.000000    0.705545    3.172599
C     0.000000   -0.705545    3.172599
C     0.000000    1.396736    1.988558
C     0.000000   -1.396736    1.988558
C     0.000000    1.384878   -0.494217
C     0.000000   -1.384878   -0.494217
C     0.000000    0.711893    0.749997
C     0.000000   -0.711893    0.749997
C     0.000000    0.714904   -1.692605
C     0.000000   -0.714904   -1.692605
C     0.000000    1.476613   -2.990942
C     0.000000   -1.476613   -2.990942
H     0.000000    1.240249    4.113143
H     0.000000   -1.240249    4.113143
H     0.000000    2.479711    1.986908
H     0.000000   -2.479711    1.986908
H     0.000000    2.468780   -0.491189
H     0.000000   -2.468780   -0.491189
H    -0.876451    1.238572   -3.598523
H     0.000000    2.550606   -2.812154
H     0.876451    1.238572   -3.598523
H    -0.876451   -1.238572   -3.598523
H     0.876451   -1.238572   -3.598523
H     0.000000   -2.550606   -2.812154
