9
2-3-3-C3H3F3[B3LYP/aug-cc-pVTZ]
C    -1.639261    1.150479    0.000000
H    -2.490302    0.487611    0.000000
H    -1.809141    2.216402    0.000000
C    -0.417478    0.652524    0.000000
F     0.670083    1.440552    0.000000
C    -0.079576   -0.806625    0.000000
H    -0.974900   -1.428241    0.000000
F     0.670083   -1.123278    1.097373
F     0.670083   -1.123278   -1.097373
