10
2-3-thieno-1-3-2-dioxathiole[B3LYP/aug-cc-pVTZ]
S     1.786816   -0.999206   -0.026846
S    -2.245223   -0.148491   -0.179660
O    -1.005016   -1.270226    0.235149
O    -1.330231    1.236629    0.220211
C     0.134146   -0.525701    0.028191
C    -0.017500    0.819744    0.026189
C     1.196636    1.540976   -0.022378
C     2.258331    0.681032   -0.056911
H     1.283391    2.615343   -0.042028
H     3.303414    0.920280   -0.147308
