10
2-4-dichloro-pyrimidine[B3LYP/aug-cc-pVTZ]
Cl    -2.599175   -0.886996   -0.000001
Cl     2.613285   -0.893714    0.000000
N     0.001967   -0.687993    0.000000
N    -1.233601    1.339871    0.000000
C    -1.116676    0.025543    0.000000
C     1.121365    0.005739    0.000000
C     1.154461    1.395274    0.000000
C    -0.082104    2.017431    0.000000
H     2.080180    1.947300    0.000000
H    -0.160883    3.097694    0.000002
