11
2-4-dicyano-thiophene[B3LYP/aug-cc-pVTZ]
S    -0.785680    1.458954   -0.000008
N    -3.431367   -1.222926    0.000007
N     3.697033   -0.916364    0.000004
C    -1.052269   -0.263674    0.000002
C     1.258799   -0.088174    0.000000
C     0.130306   -0.953110    0.000005
C     0.907286    1.241520   -0.000007
C    -2.359652   -0.797434    0.000005
C     2.606930   -0.544009    0.000002
H     0.193528   -2.029602    0.000011
H     1.569280    2.090663   -0.000012
