26
2-3-4-trimethylpentane[B3LYP/aug-cc-pVTZ]
C    -1.643780   -0.744140    1.267860
C    -2.416221    0.092866   -0.979081
C     1.568432   -1.626417   -0.343229
C     2.566669    0.643816   -0.042519
C    -0.183821    1.829717    0.314524
C    -1.228311   -0.457857   -0.180043
C     1.328673   -0.222989    0.228474
C     0.031928    0.441798   -0.307623
H    -2.484667   -1.439569    1.291217
H    -0.835389   -1.189503    1.848803
H    -1.961332    0.164639    1.782113
H    -2.136078    0.303073   -2.013245
H    -2.813834    1.012725   -0.547434
H    -3.231892   -0.632223   -0.997675
H     2.532205   -2.012895   -0.007877
H     0.808890   -2.343326   -0.035097
H     1.585518   -1.607030   -1.436276
H     2.520811    1.609052    0.458909
H     2.684972    0.828086   -1.113860
H     3.469540    0.139486    0.305210
H    -1.127132    2.269864   -0.006227
H     0.602929    2.524328    0.025850
H    -0.194597    1.779952    1.405178
H    -0.977247   -1.415409   -0.640316
H     1.230226   -0.318172    1.315434
H     0.185662    0.586165   -1.384882
