13
2-4-5-tribromo-6-methyl-pyrimidine[B3LYP/aug-cc-pVTZ]
C     1.049437   -0.211037    0.000000
C     0.705144   -1.570612    0.000000
C     0.000000    0.707995    0.000000
C    -1.482500   -0.974742    0.000000
C     1.721025   -2.668583    0.000000
N    -0.583207   -1.936825    0.000000
N    -1.262789    0.327100    0.000000
Br     2.868516    0.315811    0.000000
Br     0.298749    2.584662    0.000000
Br    -3.309658   -1.517798    0.000000
H     2.367812   -2.598209    0.875665
H     1.211458   -3.627237    0.000000
H     2.367812   -2.598209   -0.875665
