15
2-4-pentanedione[B3LYP/aug-cc-pVTZ]
C     0.000000    1.243074    0.098143
C     0.000000   -1.243074    0.098143
C     1.350214    1.778331   -0.300826
C    -1.350214   -1.778331   -0.300826
C     0.000000    0.000000    0.994477
O    -1.040368    1.730141   -0.279145
O     1.040368   -1.730141   -0.279145
H     1.852898    2.184930    0.580181
H     1.978873    0.968481   -0.675930
H     1.241245    2.557857   -1.049844
H    -1.241245   -2.557857   -1.049844
H    -1.852898   -2.184930    0.580181
H    -1.978873   -0.968481   -0.675930
H    -0.895614    0.031398    1.611420
H     0.895614   -0.031398    1.611420
