11
1R-thiazolidine1-oxideB[B3LYP/aug-cc-pVTZ]
C    -1.589968    0.591998    0.318003
C    -1.482626   -0.731595    0.240541
C    -0.409779    1.297050   -0.271302
N    -0.319737   -1.200523   -0.391951
O     1.667032   -0.003415    0.897793
S     0.936297    0.011580   -0.400006
H    -2.429540    1.112221    0.749196
H    -2.206329   -1.457624    0.580961
H    -0.583145    1.663910   -1.286760
H     0.010173    2.099326    0.334185
H     0.024228   -2.116844   -0.139614
