12
thiolane-1-oxideD[B3LYP/aug-cc-pVTZ]
C     1.587197   -0.663411    0.266045
C     1.587197    0.663411    0.266045
C     0.353161   -1.327115   -0.256480
C     0.353161    1.327115   -0.256480
O    -1.726065    0.000000    0.869953
S    -0.946541    0.000000   -0.417329
H     2.420926   -1.255926    0.620455
H     2.420926    1.255926    0.620455
H     0.494961   -1.789128   -1.236410
H    -0.081439   -2.065993    0.417387
H    -0.081439    2.065993    0.417387
H     0.494961    1.789128   -1.236410
