13
2-4-5-trifluoro-6-methyl-pyrimidine[B3LYP/aug-cc-pVTZ]
C    -1.022816    0.186174   -0.000039
C    -0.513038   -1.102920   -0.000143
C    -0.116583    1.240174    0.000005
C     1.559349   -0.205422    0.000000
C    -1.388160   -2.314502    0.000022
N     0.818742   -1.284102   -0.000133
N     1.178216    1.060469    0.000038
F    -2.341445    0.427343    0.000001
F    -0.566309    2.486423    0.000014
F     2.872628   -0.397773    0.000055
H    -1.162280   -2.925605   -0.874234
H    -1.170278   -2.919635    0.880532
H    -2.442518   -2.054287   -0.005320
