8
C3H3NOb[B3LYP/aug-cc-pVTZ]
O     0.216355   -1.131231   -0.000019
N    -1.034393   -0.361708    0.000007
C     1.141200   -0.042903    0.000000
C    -1.003508    0.912444    0.000005
C     0.486277    1.267077   -0.000055
H    -1.812094   -1.012004    0.000017
H     1.788873   -0.112783    0.883419
H     1.789317   -0.113121   -0.883034
