14
2-6-diazabicyclo-330-octa-3-7-9-triene[B3LYP/aug-cc-pVTZ]
C     1.327665    1.176379    0.000000
C    -1.327665   -1.176379    0.000000
C     2.119092    0.047739    0.000000
C    -2.119092   -0.047739    0.000000
C    -0.008256    0.695795    0.000000
C     0.008256   -0.695795    0.000000
N     1.327665   -1.085752    0.000000
N    -1.327665    1.085752    0.000000
H     1.685808    2.190986    0.000000
H    -1.685808   -2.190986    0.000000
H     3.191771   -0.033733    0.000000
H    -3.191771    0.033733    0.000000
H     1.673163   -2.026299    0.000000
H    -1.673163    2.026299    0.000000
