11
2-6-difluoropyridine[B3LYP/aug-cc-pVTZ]
N     0.000000    0.000000    1.004348
C     0.000000    0.000000   -1.763705
C     0.000000    1.116033    0.313567
C     0.000000   -1.116033    0.313567
C     0.000000    1.202637   -1.069047
C     0.000000   -1.202637   -1.069047
H     0.000000    0.000000   -2.844744
F     0.000000    2.245286    1.032550
F     0.000000   -2.245286    1.032550
H     0.000000    2.162100   -1.561803
H     0.000000   -2.162100   -1.561803
