20
2-6-dimethylaniline[B3LYP/aug-cc-pVTZ]
C     0.031636    2.129960    0.000000
C     0.022160    1.426629    1.197036
C     0.022160    1.426629   -1.197036
C     0.000741    0.035768    1.220838
C     0.000741    0.035768   -1.220838
C    -0.014016   -0.663674    0.000000
C     0.000741   -0.713836    2.525634
C     0.000741   -0.713836   -2.525634
N     0.019170   -2.060830    0.000000
H     0.048473    3.210934    0.000000
H     0.033219    1.964237    2.137086
H     0.033219    1.964237   -2.137086
H    -0.899053   -1.326444    2.647724
H     0.860065   -1.385263    2.606507
H     0.037075   -0.025129    3.367762
H     0.860065   -1.385263   -2.606507
H    -0.899053   -1.326444   -2.647724
H     0.037075   -0.025129   -3.367762
H    -0.317355   -2.510195   -0.834773
H    -0.317355   -2.510195    0.834773
