10
2H-thiete-1-1-dioxide[B3LYP/aug-cc-pVTZ]
O     1.238707   -1.255661    0.004628
S     0.503569   -0.000001    0.014979
O     1.238698    1.255665    0.004692
C    -0.961544    0.000030   -1.129930
C    -1.794509   -0.000009    0.132105
C    -0.911283   -0.000031    1.127195
H    -1.013806   -0.899488   -1.740062
H    -1.013804    0.899596   -1.739990
H    -2.873692   -0.000011    0.186098
H    -0.971028   -0.000045    2.203515
