17
2-6-dimethylpyridine[B3LYP/aug-cc-pVTZ]
C     0.000000    0.000000   -1.831849
C     0.000000    1.195324   -1.129066
C     0.000000   -1.195324   -1.129066
C     0.000000    1.155404    0.265392
C     0.000000   -1.155404    0.265392
C     0.000000    2.411589    1.091716
C     0.000000   -2.411589    1.091716
N     0.000000    0.000000    0.937784
H     0.000000    0.000000   -2.914051
H     0.000000    2.144159   -1.647425
H     0.000000   -2.144159   -1.647425
H    -0.876787    2.436350    1.740225
H     0.876787    2.436350    1.740225
H     0.000000    3.304826    0.469053
H     0.000000   -3.304826    0.469053
H     0.876787   -2.436350    1.740225
H    -0.876787   -2.436350    1.740225
