10
3-chloromethyl-1-2-5-thiadiazole[B3LYP/aug-cc-pVTZ]
Cl     2.634618    0.089972   -0.472541
S    -2.226941   -0.407927   -0.293740
N    -0.782002   -1.097257    0.085205
N    -1.805293    1.168792   -0.048337
C     0.046472   -0.123793    0.406185
C    -0.547869    1.172036    0.326492
C     1.448200   -0.422078    0.812171
H    -0.047158    2.105902    0.539835
H     1.735384    0.120694    1.707773
H     1.584567   -1.487017    0.958257
