19
2-6-dimethylphenol[B3LYP/aug-cc-pVTZ]
C     0.029432   -2.115963    0.000000
C    -1.177779   -1.432184    0.000000
C     1.221499   -1.401498    0.000000
C    -1.215878   -0.038978    0.000000
C     1.232186   -0.009912    0.000000
C     0.000000    0.652782    0.000000
C    -2.522797    0.709811    0.000000
C     2.513155    0.776894    0.000000
O     0.045187    2.025498    0.000000
H     0.042486   -3.197090    0.000000
H    -2.110575   -1.981915    0.000000
H     2.166310   -1.930240    0.000000
H    -2.631669    1.347832    0.882868
H    -2.631669    1.347832   -0.882868
H    -3.362725    0.017813    0.000000
H     2.580324    1.426517   -0.874653
H     2.580324    1.426517    0.874653
H     3.374227    0.110457    0.000000
H    -0.847434    2.382583    0.000000
