18
3-ethylsulphonyl-1-propene[B3LYP/aug-cc-pVTZ]
C    -3.048752   -0.233601    0.036674
C    -1.747093   -0.694147   -0.606769
S    -0.333206    0.184684    0.124046
O    -0.241241   -0.192676    1.531689
O    -0.432759    1.596855   -0.241566
C     1.104634   -0.526657   -0.766862
C     2.358790    0.197724   -0.407998
C     3.357139   -0.350923    0.271282
H    -3.045989   -0.433495    1.106557
H    -3.203625    0.832669   -0.117926
H    -3.884192   -0.770832   -0.411908
H    -1.719025   -0.479926   -1.674605
H    -1.562290   -1.755515   -0.442909
H     1.142724   -1.579964   -0.494282
H     0.862845   -0.421743   -1.825556
H     2.417087    1.230864   -0.727347
H     3.318293   -1.376763    0.615663
H     4.249152    0.211954    0.508629
