11
3-azido-2-fluoropropene[B3LYP/aug-cc-pVTZ]
F    -1.641036   -0.642024   -0.961587
N     1.087050   -0.943365    0.151427
N     1.749753    0.051367   -0.134059
N     2.441943    0.885774   -0.448358
C    -0.170884   -0.683104    0.894190
C    -1.185976    0.068769    0.096722
C    -1.642697    1.288657    0.320483
H    -0.554963   -1.669771    1.144246
H     0.032320   -0.144959    1.821789
H    -2.385849    1.733728   -0.323978
H    -1.276059    1.856850    1.160784
