11
3-difluoroaminopropanenitrile[B3LYP/aug-cc-pVTZ]
F     2.284114   -0.947156   -0.058625
F     1.675956    1.135447   -0.349163
N     1.368083   -0.002087    0.430483
N    -3.383243   -0.343586   -0.277416
C     0.067845   -0.461845   -0.080232
C    -1.014437    0.516543    0.390152
C    -2.342864    0.043335    0.020269
H    -0.078651   -1.445718    0.361181
H     0.101207   -0.548538   -1.166096
H    -0.967408    0.631463    1.474281
H    -0.852917    1.499687   -0.051863
