7
3-bromo-propyne[B3LYP/aug-cc-pVTZ]
Br     1.036449   -0.159394    0.000000
C    -0.618003    0.948377    0.000005
C    -1.811728    0.145758    0.000000
C    -2.818217   -0.505788   -0.000005
H    -0.540319    1.567071    0.888490
H    -0.540319    1.567081   -0.888473
H    -3.707400   -1.085428   -0.000008
