10
3-bromo-pyruvicacid[B3LYP/aug-cc-pVTZ]
Br    -2.032775   -0.044594    0.000004
O     0.595136    1.597293   -0.000025
O     3.246009    0.723435    0.000020
O     2.430682   -1.379138   -0.000014
C     0.830055    0.425933   -0.000008
C     2.321702   -0.031722    0.000000
C    -0.197302   -0.684821    0.000008
H     3.374686   -1.601695   -0.000008
H    -0.064463   -1.313305   -0.877640
H    -0.064460   -1.313284    0.877670
