10
3-bromomethyl-1-2-4-oxadiazole[B3LYP/aug-cc-pVTZ]
Br    -1.866540   -0.137088   -0.203360
O     2.819813    0.357476   -0.563875
N     1.671972    1.110528   -0.281156
N     1.463046   -0.977641    0.546283
C     0.911573    0.273259    0.367763
C     2.603840   -0.851410   -0.039704
C    -0.419727    0.668697    0.875839
H     3.385034   -1.585402   -0.151350
H    -0.577417    0.309096    1.886116
H    -0.556443    1.741076    0.814547
