17
3-ethylpyridine[B3LYP/aug-cc-pVTZ]
C     1.635229    1.169984    0.080429
C     0.276934    1.186693   -0.201516
C     2.267258   -0.057658    0.237114
C     0.324908   -1.186647   -0.148460
C    -0.416052   -0.015986   -0.320449
C    -2.745423    0.061771    0.682967
C    -1.897892   -0.062347   -0.591011
N     1.628799   -1.222087    0.123692
H     2.197669    2.088931    0.173539
H    -0.242156    2.128401   -0.334054
H     3.327219   -0.108700    0.457919
H    -0.166546   -2.150313   -0.242291
H    -2.523086   -0.747211    1.379701
H    -3.809451    0.022818    0.446195
H    -2.548064    1.004033    1.195978
H    -2.164854    0.740982   -1.281320
H    -2.142103   -0.999187   -1.095962
