9
3-cyanoisoxazole[B3LYP/aug-cc-pVTZ]
O    -1.681498   -0.743311    0.000016
N    -0.355469   -1.123275    0.000007
N     2.897391    0.029139   -0.000024
C     0.323220    0.004011   -0.000002
C    -0.528654    1.144183    0.000000
C    -1.764853    0.597636    0.000012
C     1.747751   -0.010163   -0.000014
H    -0.247836    2.180702   -0.000006
H    -2.758422    1.010746    0.000018
