11
3-chloro-4-mercapto-4-oxolen-2-one[B3LYP/aug-cc-pVTZ]
Cl    -0.294090    2.071082   -0.000003
S     2.440221   -0.174159    0.000001
O    -1.231702   -1.742984    0.000002
O    -2.709242   -0.031225    0.000000
C    -0.315568    0.356447    0.000000
C     0.729367   -0.479618    0.000001
C    -1.577506   -0.412007    0.000000
C     0.190782   -1.883495    0.000003
H     2.338062    1.169452    0.000000
H     0.491515   -2.442798    0.888008
H     0.491515   -2.442801   -0.888000
