19
3-ethylphenol[B3LYP/aug-cc-pVTZ]
C    -0.901148    1.795527    0.122367
C     0.418569    1.454846   -0.142196
C    -1.883647    0.815844    0.200910
C    -0.208669   -0.860797   -0.256980
C     0.778487    0.118510   -0.333408
C    -1.530238   -0.516572    0.009051
C     2.984093   -0.577570    0.712281
C     2.217039   -0.266854   -0.580918
O    -2.444462   -1.534667    0.066317
H    -1.173015    2.832920    0.265293
H     1.172655    2.228454   -0.206139
H    -2.913718    1.083750    0.403866
H     0.034043   -1.904816   -0.407043
H     2.994645    0.286561    1.377704
H     4.017795   -0.850368    0.494569
H     2.521714   -1.405294    1.251253
H     2.251433   -1.139150   -1.236927
H     2.720909    0.543479   -1.111640
H    -3.317676   -1.175798    0.251885
