13
3-chlorophenol[B3LYP/aug-cc-pVTZ]
C     1.869828   -0.647799    0.000000
C     1.019117   -1.742447    0.000000
C     1.374486    0.652998    0.000000
C    -0.877502   -0.243979    0.000000
C    -0.358346   -1.536330    0.000000
C     0.000000    0.831402    0.000000
O    -1.160637   -2.640733    0.000000
Cl    -0.660272    2.455830    0.000000
H     2.939624   -0.806173    0.000000
H     1.400483   -2.753177    0.000000
H     2.036335    1.505248    0.000000
H    -1.945745   -0.074236    0.000000
H    -2.086473   -2.377981    0.000000
