12
3-chloro-2-isothiocyanatopropanal[B3LYP/aug-cc-pVTZ]
Cl    -3.091891   -0.553378   -0.200574
S     3.632310   -0.266570   -0.128147
O    -0.699111    2.368642   -0.205516
N     0.897212   -0.474689    0.245548
C    -0.405066   -0.025285   -0.173044
C    -1.436255   -1.039052    0.315660
C    -0.633145    1.364267    0.442426
C     2.069088   -0.345652    0.048062
H    -0.443611    0.071906   -1.258723
H    -1.234330   -2.019402   -0.103642
H    -1.437139   -1.102639    1.400744
H    -0.695064    1.370700    1.548388
