14
3-chloroaniline[B3LYP/aug-cc-pVTZ]
C    -0.725688    1.839957    0.003904
C    -1.772672    0.931790   -0.002269
C     0.599144    1.416167    0.004591
C    -0.184148   -0.880797   -0.007062
C    -1.513782   -0.444159   -0.007235
C     0.841141    0.050127   -0.000913
N    -2.554624   -1.364322   -0.068662
Cl     2.499376   -0.526961    0.002399
H    -0.942366    2.899755    0.008952
H    -2.796213    1.283658   -0.007912
H     1.416937    2.119885    0.009926
H     0.045646   -1.937052   -0.016153
H    -3.451270   -1.039482    0.252768
H    -2.343722   -2.296693    0.246175
