10
4-cyano-3-hydroxy-1-2-thiazole[B3LYP/aug-cc-pVTZ]
S    -1.919398   -0.623306   -0.000004
O     0.684500    2.053364    0.000006
N    -1.349126    0.945938    0.000001
N     3.124988   -0.766794    0.000002
C     0.587079   -0.360579    0.000000
C    -0.044852    0.929530    0.000002
C    -0.373055   -1.340201   -0.000004
C     1.987770   -0.580577    0.000001
H     0.082922    2.809754    0.000007
H    -0.221242   -2.406813   -0.000007
