15
3-ethynoxy-1-hydroxy-1-methylurea[B3LYP/aug-cc-pVTZ]
O     1.731880    0.108377   -0.831919
O    -0.233133   -1.544013   -0.196714
O    -2.691735   -0.847458    0.265518
N    -1.675720    0.124252    0.257316
N     0.522172    0.666970   -0.284536
C    -0.460475   -0.351147   -0.115603
C    -2.198971    1.462610    0.154511
C     2.699348    0.095191    0.044841
C     3.640521    0.058237    0.782977
H    -2.181394   -1.673843    0.154736
H     0.256709    1.383325   -0.950263
H    -2.597488    1.677053   -0.841848
H    -2.998686    1.573387    0.884085
H    -1.411630    2.169530    0.406162
H     4.468689    0.007404    1.442234
