11
3-ethynylsulfanyl-1H-1-2-4-triazole[B3LYP/aug-cc-pVTZ]
S    -1.131399   -1.070775   -0.000017
N     1.538046   -1.000510   -0.000058
N     0.653008    1.084197    0.000038
N     2.510851   -0.057395   -0.000035
C     0.445498   -0.256528   -0.000012
C     1.967699    1.170963    0.000021
C    -2.199076    0.233648    0.000030
C    -3.054062    1.079168    0.000059
H     3.478056   -0.332882   -0.000061
H     2.546140    2.079525    0.000047
H    -3.795499    1.838204    0.000079
