16
3-hexyne[B3LYP/aug-cc-pVTZ]
C    -0.218611   -2.656740    0.856457
C     0.218611    2.656740    0.856457
C     0.001222    2.061425   -0.542357
C    -0.001222   -2.061425   -0.542357
C     0.001222   -0.601199   -0.556308
C    -0.001222    0.601199   -0.556308
H    -0.212880   -3.746339    0.811070
H     0.212880    3.746339    0.811070
H     1.174145    2.335610    1.270132
H    -0.567645    2.337886    1.540172
H     0.567645   -2.337886    1.540172
H    -1.174145   -2.335610    1.270132
H     0.780734    2.424674   -1.217851
H    -0.945635    2.426023   -0.950275
H     0.945635   -2.426023   -0.950275
H    -0.780734   -2.424674   -1.217851
