9
2-propynyl-thiocyanate[B3LYP/aug-cc-pVTZ]
S     2.304780    0.469076    0.000055
N    -0.000276   -1.064889   -0.000264
C    -1.440161   -1.078448    0.000154
C    -2.045252    0.250085    0.000038
C     0.961067   -0.361593   -0.000087
C    -2.535008    1.342919   -0.000048
H    -1.775353   -1.640578   -0.874688
H    -1.774829   -1.640184    0.875452
H    -2.968251    2.311985   -0.000143
