16
3-hydroxy-4-7-dihydrofuro-23triazin-4one[B3LYP/aug-cc-pVTZ]
O    -2.290204   -0.882999   -0.151424
O     1.444926    1.959948    0.003154
O     2.919242   -0.207425   -0.239915
N    -0.081213   -1.807611    0.272914
N     1.538222   -0.300125   -0.183639
N     1.139137   -1.556445    0.277999
C    -0.561361    0.592228    0.420127
C    -0.879772   -0.732796   -0.252028
C    -1.815431    1.347987    0.067672
C     0.851036    0.905794    0.038355
C    -2.746502    0.420002   -0.163318
H    -0.516052    0.455732    1.514116
H    -0.629924   -0.648724   -1.323073
H    -1.972359    2.408820    0.151036
H    -3.804155    0.525826   -0.340190
H     3.069933    0.752129   -0.132165
