15
3-methylbut-1-ene[B3LYP/aug-cc-pVTZ]
C     0.038790   -2.151291    0.000000
C    -0.466392   -0.924162    0.000000
C     0.038790    1.174358    1.264341
C     0.038790    1.174358   -1.264341
C     0.328419    0.351813    0.000000
H    -0.595889   -3.027411    0.000000
H     1.108765   -2.324083    0.000000
H    -1.547581   -0.800215    0.000000
H     0.621162    2.097450    1.268423
H     0.283840    0.612320    2.165774
H    -1.017756    1.447586    1.316867
H    -1.017756    1.447586   -1.316867
H     0.621162    2.097450   -1.268423
H     0.283840    0.612320   -2.165774
H     1.389834    0.086538    0.000000
