18
3-methyl-1-butanol[B3LYP/aug-cc-pVTZ]
C     1.596556   -1.266774   -0.239032
C     1.596587    1.262126   -0.295667
C    -0.382487    0.015965    0.749058
C    -1.297520   -0.031192   -0.471402
C     1.132440    0.013943    0.463905
O    -2.679318   -0.078760   -0.109803
H     2.685123   -1.295615   -0.309213
H     1.204663   -1.335770   -1.255520
H     1.274126   -2.157267    0.303519
H     1.204440    1.286519   -1.313980
H     2.685176    1.287631   -0.367323
H     1.275953    2.176485    0.207423
H    -0.625987    0.914555    1.327581
H    -0.629303   -0.837820    1.385322
H    -1.111212    0.820023   -1.133951
H    -1.127626   -0.938783   -1.049056
H     1.619002    0.036154    1.444159
H    -2.893279    0.709561    0.398292
