17
3-methoxyphenol[B3LYP/aug-cc-pVTZ]
C    -1.579132   -1.018404    0.000000
C    -0.556518   -1.950256    0.000000
C    -1.323399    0.352438    0.000000
C     1.044493   -0.139672    0.000000
C     0.763417   -1.497487    0.000000
C     0.000000    0.787801    0.000000
C    -0.623241    3.096404    0.000000
O     1.751266   -2.443316    0.000000
O     0.383127    2.095674    0.000000
H    -2.605756   -1.359527    0.000000
H    -0.754444   -3.011972    0.000000
H    -2.144558    1.051118    0.000000
H     2.064483    0.223401    0.000000
H    -1.251546    3.030018    0.891559
H    -1.251546    3.030018   -0.891559
H    -0.098191    4.047676    0.000000
H     2.612695   -2.014536    0.000000
