16
3-methyl-2-5-dihydrothiophene-1-1-dioxide[B3LYP/aug-cc-pVTZ]
O    -1.801585   -0.353946   -1.263177
S    -1.102837   -0.138972    0.000074
O    -1.800137   -0.353814    1.264151
C     0.470647   -1.077138   -0.000655
C     1.551977   -0.034521   -0.000177
C     2.979502   -0.481812    0.000109
C    -0.322179    1.520248   -0.000351
C     1.145332    1.235846   -0.000038
H     0.476225   -1.706442   -0.890781
H     0.476388   -1.707450    0.888755
H     3.659750    0.368607    0.000410
H     3.197004   -1.095951   -0.877283
H     3.196558   -1.096217    0.877425
H    -0.672041    2.042715   -0.890512
H    -0.672325    2.043260    0.889375
H     1.845935    2.061374    0.000310
