17
3-methylbutanoicacid[B3LYP/aug-cc-pVTZ]
C    -1.385093   -0.119037   -0.191443
C     1.198586    1.436061    0.377759
C     2.456843   -0.677449   -0.193579
C    -0.014446   -0.553958   -0.640655
C     1.127999   -0.090146    0.287288
O    -2.127693    0.617199   -0.789592
O    -1.722647   -0.661713    1.007831
H     0.267397    1.867338    0.747324
H     1.400121    1.875664   -0.601872
H     1.997897    1.744882    1.052719
H     2.699166   -0.326079   -1.199339
H     3.273423   -0.380691    0.466040
H     2.426108   -1.767952   -0.218522
H    -0.012100   -1.645227   -0.691635
H     0.133247   -0.165542   -1.647605
H     0.921724   -0.484958    1.284881
H    -2.607598   -0.334141    1.225892
