18
3-methylene-pentane[B3LYP/aug-cc-pVTZ]
C     0.000000    1.958176   -0.987741
H     0.566649    1.430602   -1.755450
H    -0.650438    2.672727   -1.493685
H     0.707866    2.520346   -0.377078
C    -0.827026    0.996208   -0.123763
H    -1.529824    0.461466   -0.769662
H    -1.433305    1.572550    0.576719
C     0.000000   -1.958176   -0.987741
H    -0.566649   -1.430602   -1.755450
H     0.650438   -2.672727   -1.493685
H    -0.707866   -2.520346   -0.377078
C     0.827026   -0.996208   -0.123763
H     1.529824   -0.461466   -0.769662
H     1.433305   -1.572550    0.576719
C     0.000000    0.000000    0.656119
C     0.000000    0.000000    1.987937
H    -0.592649    0.706057    2.556012
H     0.592649   -0.706057    2.556012
