20
3-methyl-pentane[B3LYP/aug-cc-pVTZ]
C     0.332422   -0.120738    2.576193
C     0.332422   -0.120738   -2.576193
C    -1.326599   -0.799534    0.000000
C     0.332422    0.658899    1.260993
C     0.332422    0.658899   -1.260993
C     0.076207   -0.183223    0.000000
H     1.064695   -0.930894    2.552760
H     0.589136    0.530437    3.413029
H    -0.640971   -0.560347    2.794714
H     0.589136    0.530437   -3.413029
H    -0.640971   -0.560347   -2.794714
H     1.064695   -0.930894   -2.552760
H    -2.090417   -0.016871    0.000000
H    -1.492605   -1.425260    0.876651
H    -1.492605   -1.425260   -0.876651
H     1.299473    1.157680    1.150999
H    -0.414951    1.458132    1.311128
H    -0.414951    1.458132   -1.311128
H     1.299473    1.157680   -1.150999
H     0.805074   -1.004008    0.000000
