8
3-oxoprop-2-enoicacid[B3LYP/aug-cc-pVTZ]
O    -2.088631   -0.584833   -0.000019
O    -0.935596    1.306407    0.000008
O     2.497307    0.192352   -0.000016
C    -1.014648   -0.052431    0.000002
C     0.243940   -0.824199    0.000019
C     1.450682   -0.297452    0.000000
H    -0.029116    1.634178    0.000053
H     0.164626   -1.901098    0.000033
