22
3-phenyl-1-propanol[B3LYP/aug-cc-pVTZ]
C    -3.309215   -0.035048   -0.489887
C    -2.671442    1.180652   -0.272279
C    -2.629106   -1.220002   -0.231542
C    -1.363124    1.208399    0.197144
C    -1.321483   -1.186224    0.237822
C    -0.666846    0.027201    0.456848
C     0.765821    0.059305    0.929966
C     1.782430   -0.026705   -0.220241
C     3.223262    0.025404    0.272641
O     4.180079   -0.117662   -0.774765
H    -4.328143   -0.059056   -0.851886
H    -3.193934    2.108670   -0.463436
H    -3.118515   -2.171659   -0.391314
H    -0.877699    2.161375    0.369864
H    -0.803093   -2.115354    0.441580
H     0.940283   -0.770099    1.620194
H     0.940705    0.977696    1.495854
H     1.606106    0.797260   -0.919162
H     1.631807   -0.951245   -0.781323
H     3.399381    0.953589    0.829929
H     3.418890   -0.803311    0.954619
H     4.081795    0.615535   -1.389632
