8
3-sulfanylideneprop-2-enoicacid[B3LYP/aug-cc-pVTZ]
S    -2.444945    0.114711   -0.000002
O     1.338014    1.334195    0.000002
O     2.574349   -0.551462    0.000001
C     1.397186    0.128744    0.000001
C     0.265164   -0.804020    0.000000
C    -0.982040   -0.381913    0.000000
H     3.277153    0.114294    0.000002
H     0.461205   -1.868401    0.000000
