12
3-4H-pyridinone[B3LYP/aug-cc-pVTZ]
N     1.003702   -1.321515   -0.000044
C    -0.274008   -1.255389    0.000230
C    -1.057493    0.010593    0.000105
C    -0.250299    1.293437    0.000138
C     1.227716    1.089202    0.000005
C     1.758426   -0.135993   -0.000177
O    -2.271435   -0.003688   -0.000258
H    -0.853456   -2.175087    0.000425
H    -0.562854    1.887548   -0.865857
H     1.870338    1.960254    0.000050
H     2.828067   -0.291154   -0.000357
H    -0.562581    1.887450    0.866314
