10
3-sulfanyl-2H-thiadiazole[B3LYP/aug-cc-pVTZ]
S    -1.704462   -0.551936   -0.348464
S     2.023603   -0.133580   -0.423222
N     0.632814    0.094551    0.642941
N    -0.297676   -0.998966    0.631752
C    -0.067494    1.302057    0.352543
C    -1.293811    1.155566   -0.146389
H     2.855091   -0.564541    0.544789
H    -0.635754   -1.053433    1.588426
H     0.457833    2.229855    0.510423
H    -1.961569    1.941553   -0.456436
