16
3-3-dimethyl-butyne[B3LYP/aug-cc-pVTZ]
C     0.000000    0.000000    1.171492
C     0.000000    0.000000   -0.297053
C     0.000000    1.456381   -0.805220
C     1.261263   -0.728190   -0.805220
C    -1.261263   -0.728190   -0.805220
C     0.000000    0.000000    2.371824
H     0.000000    0.000000    3.433077
H     0.000000    1.469839   -1.896499
H     1.272918   -0.734919   -1.896499
H    -1.272918   -0.734919   -1.896499
H    -0.882465    1.990948   -0.454532
H     0.882465    1.990948   -0.454532
H     2.165444   -0.231237   -0.454532
H     1.282979   -1.759711   -0.454532
H    -1.282979   -1.759711   -0.454532
H    -2.165444   -0.231237   -0.454532
