14
3-2-carboxyethynylamino-2-propynoicacid[B3LYP/aug-cc-pVTZ]
O     3.552425   -1.677314   -0.000076
O    -3.552425   -1.677314   -0.000133
O     4.601741    0.288643    0.000051
O    -4.601741    0.288643   -0.000016
N     0.000000    1.455001    0.000098
C     3.482204   -0.481149   -0.000003
C    -3.482204   -0.481149   -0.000058
C     2.240625    0.251308    0.000033
C    -2.240624    0.251308   -0.000006
C     1.181312    0.822939    0.000062
C    -1.181312    0.822939    0.000041
H     4.369566    1.225617    0.000108
H    -4.369566    1.225617    0.000046
H     0.000000    2.465308    0.000146
