16
3-3-dimethyl-oxetane[B3LYP/aug-cc-pVTZ]
C    -1.264788    1.284808    0.000000
H    -1.283550    1.930106    0.881130
H    -1.283550    1.930106   -0.881130
H    -2.179327    0.690156    0.000000
C     1.255285    1.225783    0.000000
H     2.138334    0.585269    0.000000
H     1.305127    1.868005   -0.882100
H     1.305127    1.868005    0.882100
C    -0.026045    0.399811    0.000000
C    -0.026045   -0.751630    1.036255
C    -0.026045   -0.751630   -1.036255
H     0.817961   -0.777877    1.729654
H     0.817961   -0.777877   -1.729654
H    -0.958286   -0.870369    1.595908
H    -0.958286   -0.870369   -1.595908
O     0.100540   -1.752252    0.000000
