10
3-4-dichloropyridazine[B3LYP/aug-cc-pVTZ]
Cl    -1.455409   -1.648364    0.000000
Cl    -1.486903    1.583880    0.000000
N     1.107307    1.406825    0.000000
N     2.295689    0.818349    0.000000
C    -0.000224   -0.713003    0.000000
C     1.231764   -1.327063    0.000000
C     0.000000    0.689684    0.000000
C     2.356394   -0.507545    0.000000
H     1.317692   -2.403602    0.000000
H     3.353030   -0.928842    0.000000
