10
3-4-difluoro-1-3-thiazole[B3LYP/aug-cc-pVTZ]
S    -1.754466   -0.335189   -0.197249
F     1.013789    1.522561   -0.771068
F     2.045030   -1.036519    0.178958
N     0.632941    0.772412    0.482854
C     0.799133   -0.571033    0.149039
C    -0.780143    1.004087    0.668274
C    -0.280485   -1.267924   -0.221740
H    -0.988442    0.907291    1.731910
H    -1.050908    1.989954    0.309837
H    -0.280179   -2.306271   -0.510189
