14
3-5-dichloroaniline[B3LYP/aug-cc-pVTZ]
C    -0.002611   -1.733711    0.000000
C    -0.002408   -1.024146    1.207301
C    -0.002408    0.359331    1.183235
C    -0.002586    1.085107    0.000000
C    -0.002408    0.359331   -1.183235
C    -0.002408   -1.024146   -1.207301
N    -0.060193   -3.118911    0.000000
H    -0.007345   -1.548683    2.151914
Cl     0.000346    1.229076    2.704581
H    -0.002009    2.162516    0.000000
Cl     0.000346    1.229076   -2.704581
H    -0.007345   -1.548683   -2.151914
H     0.257626   -3.575977   -0.838380
H     0.257626   -3.575977    0.838380
