9
3-4-difluorofuran[B3LYP/aug-cc-pVTZ]
F     1.398463    1.484940   -0.000003
F     1.398463   -1.484940   -0.000003
O    -1.779157    0.000000    0.000004
C     0.314030    0.712057    0.000000
C     0.314030   -0.712057    0.000000
C    -0.981873    1.104503    0.000002
C    -0.981873   -1.104503    0.000002
H    -1.462488    2.064029    0.000004
H    -1.462488   -2.064029    0.000003
