20
3-5-dimethylaniline[B3LYP/aug-cc-pVTZ]
C     2.517544   -1.436630   -0.005275
C     1.212170   -0.683611    0.014104
C    -0.002777   -1.367699    0.003328
C    -1.215431   -0.678269   -0.013052
C    -2.523027   -1.427228    0.013340
C    -1.202251    0.712541   -0.023179
C     0.003078    1.420199   -0.008027
C     1.204894    0.707957    0.012682
N     0.006024    2.814868   -0.071872
H     2.865912   -1.586339   -1.030476
H     2.415107   -2.420997    0.451010
H     3.299264   -0.894762    0.527510
H    -0.005117   -2.450862    0.008225
H    -3.318321   -0.859422   -0.469576
H    -2.839478   -1.624369    1.040910
H    -2.438852   -2.390051   -0.490594
H    -2.138287    1.258871   -0.046205
H     2.143579    1.250287    0.019305
H     0.839819    3.263374    0.270906
H    -0.830989    3.266634    0.258566
