8
3H-1-2-4-dithiazole[B3LYP/aug-cc-pVTZ]
S     1.295602   -0.412017    0.082747
S    -0.664803   -1.162627   -0.093069
N    -0.479291    1.584298   -0.083568
C     0.738128    1.267662   -0.100668
C    -1.435059    0.543003    0.155054
H     1.524832    2.007293   -0.203172
H    -2.263985    0.603202   -0.546612
H    -1.817015    0.629721    1.173604
