11
C4H3NO2S[B3LYP/aug-cc-pVTZ]
S    -3.117372   -0.219151   -0.000042
O     1.880210    1.021564   -0.000017
O     3.047958   -0.924185    0.000000
N     0.735994   -0.877231    0.000067
C    -0.262689    0.101627    0.000020
C     2.003640   -0.340666    0.000015
C     0.502611    1.419673    0.000015
C    -1.560452   -0.063026   -0.000009
H     0.587091   -1.870027    0.000039
H     0.307433    2.016200   -0.890818
H     0.307471    2.016180    0.890870
