8
3H-1-2-4-dioxazole[B3LYP/aug-cc-pVTZ]
O     0.891155   -0.824592    0.000333
O    -0.557923   -1.054738   -0.000461
N    -0.044878    1.222226   -0.000283
C     1.000131    0.519722   -0.000070
C    -1.143632    0.283846    0.000324
H     2.022843    0.872053   -0.000125
H    -1.756107    0.392727    0.898645
H    -1.757438    0.392866   -0.897042
