11
4-chloromethyl-2-fluoro-1-3-thiazole[B3LYP/aug-cc-pVTZ]
Cl    -2.893971   -0.323448   -0.516915
S     1.947247    0.982404   -0.300395
F     2.454522   -1.612150   -0.075441
N     0.331438   -0.906310    0.410222
C    -0.387056    0.275290    0.443852
C     1.530280   -0.673246    0.042767
C     0.310052    1.391096    0.099770
C    -1.816007    0.247130    0.843769
H    -0.036503    2.408900    0.047814
H    -2.175019    1.233905    1.114544
H    -1.981283   -0.450741    1.657975
