8
C2H3S2N[B3LYP/aug-cc-pVTZ]
S    -0.665329   -1.105340   -0.182687
S     1.328505   -0.380755    0.146421
N    -1.448431    0.367384    0.222713
C     0.727116    1.257202   -0.172811
C    -0.585503    1.466416   -0.095672
H    -1.727963    0.395573    1.201544
H     1.454698    2.032027   -0.360302
H    -1.048226    2.436538   -0.209095
