15
Nethynyl-4difluoromethyl-5hydroisoxazole[B3LYP/aug-cc-pVTZ]
F    -2.610592   -0.327834    1.201239
F    -2.811525   -0.037318   -0.964662
O     1.182464    1.333129    0.117243
N     1.584817    0.016648   -0.354989
C    -0.642997   -0.097857   -0.059740
C     0.463626   -0.798090   -0.297934
C    -2.016538   -0.627408   -0.004321
C    -0.262774    1.356137    0.055783
C     2.824717   -0.333007   -0.014553
C     3.962621   -0.634351    0.227184
H     0.589733   -1.853786   -0.474588
H    -2.071144   -1.706782   -0.144639
H    -0.624227    1.838730    0.964570
H    -0.584651    1.938157   -0.814947
H     4.963978   -0.904064    0.448868
