11
4-amino-1-3-thiazole-5-carbonitrile[B3LYP/aug-cc-pVTZ]
S    -0.844455   -1.432131   -0.001735
N    -1.485615    1.063138    0.005370
N     0.565464    2.204052   -0.054581
N     2.937529   -0.771304    0.008341
C    -0.117671    1.028945   -0.005236
C     0.435762   -0.243451   -0.005215
C    -1.980824   -0.136886    0.007729
C     1.800797   -0.558509   -0.000399
H    -3.040901   -0.340536    0.015885
H     0.051496    3.036922    0.173244
H     1.550661    2.205914    0.143440
