13
C4H4ClNO3[B3LYP/aug-cc-pVTZ]
Cl    -2.280642   -0.628707   -0.145550
O     1.092025    1.391278    0.220496
O    -0.955684    2.323645   -0.050493
O     2.553373   -0.218210   -0.655230
N     0.574476   -2.183960    0.238082
C    -0.663800   -0.075616    0.058842
C     0.431472   -0.842507    0.189010
C    -0.290734    1.338463    0.058027
C     1.619020    0.075759    0.341980
H     3.324738    0.348497   -0.543164
H    -0.217906   -2.752537   -0.012740
H     1.479328   -2.567370    0.021871
H     2.069968   -0.003146    1.336481
