8
4-bromoisothiazole[B3LYP/aug-cc-pVTZ]
Br    -1.244668   -1.381034    0.000000
S     2.057420    1.464213    0.000000
N     0.605990    2.281940    0.000000
C     0.000000    0.045842    0.000000
C     1.355837   -0.098699    0.000000
C    -0.377613    1.415359    0.000000
H     1.933457   -1.006977    0.000000
H    -1.400074    1.767181    0.000000
