11
4-bromo-1-methyl-1H-1-2-3-triazole[B3LYP/aug-cc-pVTZ]
Br    -1.940021   -0.130890    0.000013
N     2.047656   -0.135415   -0.000005
N     1.787271    1.183026   -0.000054
N     0.493084    1.336424   -0.000054
C     0.900174   -0.848615    0.000028
C     3.420046   -0.607084    0.000012
C    -0.078964    0.114124   -0.000004
H     0.863908   -1.921772    0.000069
H     3.616542   -1.202920   -0.889841
H     4.060128    0.269835   -0.000059
H     3.616565   -1.202793    0.889946
