12
4-chloro-1-butene[B3LYP/aug-cc-pVTZ]
H     3.260702   -1.294214   -0.401232
C     1.438044   -0.423931    0.191330
H     3.206899    0.548451   -0.421234
C     2.695041   -0.387967   -0.232098
H     0.306468    0.824211    1.506818
C     0.591287    0.786117    0.451638
H    -1.211253    1.787841   -0.217654
H    -0.463260    0.753418   -1.450887
C    -0.675702    0.859133   -0.390868
H     0.963360   -1.382561    0.370238
H     1.169489    1.691325    0.243452
Cl    -1.854378   -0.466387    0.014735
