12
4-chlorobut-2-ynyl-thiocyanate[B3LYP/aug-cc-pVTZ]
Cl     3.790159   -0.565860   -0.387381
S    -2.085317   -0.503553    0.546804
N    -4.695349   -0.036278   -0.498130
C    -1.119696    0.706179   -0.506380
C     2.801833    0.572983    0.637702
C     0.267289    0.664830   -0.108118
C     1.418175    0.614979    0.230597
C    -3.630791   -0.216125   -0.084152
H    -1.553731    1.692329   -0.354795
H    -1.245536    0.411120   -1.546247
H     3.273951    1.547665    0.545309
H     2.904272    0.222241    1.661369
