10
4-chloro-2-butynoicacid[B3LYP/aug-cc-pVTZ]
Cl     2.873531    0.486714    0.000430
O    -2.513569    1.387263   -0.000565
O    -3.095526   -0.762540   -0.000395
C    -2.179793    0.237520   -0.000377
C    -0.799428   -0.203129   -0.000117
C     0.356403   -0.534339    0.000095
C     1.742195   -0.935325    0.000352
H    -2.655104   -1.621927   -0.000224
H     1.980933   -1.519238   -0.885367
H     1.980645   -1.519107    0.886235
