17
4-ethylpyridine[B3LYP/aug-cc-pVTZ]
C     0.233751   -0.248858    1.186174
C     0.233751   -0.248858   -1.186174
C     0.233751   -1.636587    1.135286
C     0.233751   -1.636587   -1.135286
C     0.232164    0.482399    0.000000
C    -1.236306    2.546240    0.000000
C     0.194870    1.988942    0.000000
N     0.233121   -2.335890    0.000000
H     0.240621    0.255199    2.144492
H     0.240621    0.255199   -2.144492
H     0.238122   -2.214612    2.053040
H     0.238122   -2.214612   -2.053040
H    -1.786360    2.212834   -0.880654
H    -1.225706    3.636797    0.000000
H    -1.786360    2.212834    0.880654
H     0.727349    2.363720    0.876427
H     0.727349    2.363720   -0.876427
