12
4-cyano-5-ethynyl-1-3-diazole[B3LYP/aug-cc-pVTZ]
N    -0.276322   -1.723967    0.000021
N    -1.849466   -0.170596   -0.000023
N    -0.289475    2.979967   -0.000049
C     0.394581   -0.521917    0.000012
C    -0.614933    0.430613   -0.000017
C    -1.610732   -1.456201    0.000000
C     1.794759   -0.410634    0.000031
C    -0.446188    1.838684   -0.000036
C     2.991406   -0.303459    0.000049
H     0.162004   -2.629700    0.000046
H    -2.356541   -2.233190    0.000003
H     4.048019   -0.197456    0.000073
