13
2-mercapto-4-oxo-5-cyanopyrimidine[B3LYP/aug-cc-pVTZ]
S     3.132710   -0.028210    0.000007
O    -1.337989    2.079383   -0.000019
N     0.658787    0.991064   -0.000007
N     0.797722   -1.297239    0.000012
N    -3.917479   -0.575246   -0.000004
C    -1.360122   -0.311158    0.000000
C    -0.749660    1.025767   -0.000010
C    -0.554818   -1.403788    0.000010
C     1.482361   -0.097815    0.000004
C    -2.773022   -0.442707   -0.000002
H     1.112595    1.894358   -0.000013
H    -0.951396   -2.408389    0.000017
H     1.377708   -2.121519    0.000020
