14
4-methylpyridine[B3LYP/aug-cc-pVTZ]
C     0.170112    1.186351   -0.008143
C     0.170422   -1.186190   -0.008142
C    -1.217953    1.135555    0.002250
C    -1.217513   -1.135808    0.002253
C     0.901466    0.000262   -0.011063
C     2.404775    0.000161    0.007281
N    -1.916745   -0.000180    0.008110
H     0.673396    2.144679   -0.017182
H     0.673970   -2.144393   -0.017199
H    -1.795666    2.053142    0.003167
H    -1.794994   -2.053533    0.003164
H     2.808502   -0.876247   -0.498790
H     2.808455    0.891635   -0.471579
H     2.775701   -0.016004    1.035029
