12
4-methyl-1H-imidazole[B3LYP/aug-cc-pVTZ]
C     1.108723   -0.145442    0.000000
C    -0.725124   -1.365652    0.000000
C     0.000000    0.658242    0.000000
C    -0.075878    2.147531    0.000000
N    -1.137354   -0.122450    0.000000
N     0.632730   -1.439852    0.000000
H     2.160529    0.077190    0.000000
H    -1.353102   -2.241108    0.000000
H    -0.613019    2.509034    0.878479
H     0.918810    2.592122    0.000000
H    -0.613019    2.509034   -0.878479
H     1.185847   -2.278231    0.000000
