17
4-methylbenzaldehyde[B3LYP/aug-cc-pVTZ]
C    -0.225569    1.332966   -0.000002
C    -0.455485   -1.064735   -0.000006
C     1.156764    1.200181   -0.000032
C     0.920244   -1.190395   -0.000036
C    -1.043674    0.204925    0.000012
C     1.751261   -0.060989   -0.000040
C    -2.509207    0.366017    0.000015
C     3.247030   -0.218201    0.000041
O    -3.310674   -0.540952    0.000015
H    -0.675329    2.318557   -0.000006
H    -1.096676   -1.935469   -0.000014
H     1.781369    2.084082   -0.000052
H     1.367447   -2.176702   -0.000067
H    -2.854814    1.419797    0.000014
H     3.582124   -0.775241   -0.877101
H     3.750856    0.746927   -0.001219
H     3.582235   -0.772949    0.878607
