12
4-3H-pyridinone[B3LYP/aug-cc-pVTZ]
N     1.836314    0.047911   -0.000037
C     1.226255   -1.073102   -0.000001
C    -0.257423   -1.256683    0.000068
C    -1.075456    0.025969   -0.000044
C    -0.291026    1.257772    0.000051
C     1.053818    1.213993   -0.000020
O    -2.292236    0.003283   -0.000067
H     1.839628   -1.972339   -0.000073
H    -0.551220   -1.860885    0.865345
H    -0.825378    2.197611    0.000125
H     1.634483    2.127729    0.000039
H    -0.550829   -1.861455   -0.864964
