8
4-5-didehydro-1-3-dihydroimidazol-2-one[B3LYP/aug-cc-pVTZ]
O    -1.905063    0.000000    0.000000
N     0.190297    1.107884    0.120754
N     0.190296   -1.107884   -0.120755
C    -0.714324    0.000000    0.000000
C     1.431605    0.685517   -0.183402
C     1.431604   -0.685518    0.183403
H    -0.158479    2.033494   -0.089560
H    -0.158482   -2.033493    0.089561
