10
4-4-difluorobut-2-ynoicacid[B3LYP/aug-cc-pVTZ]
F     2.506325    1.085625   -0.291206
F     2.521596   -0.878303    0.707492
O    -2.800863   -1.049313   -0.310556
O    -2.668371    1.055585    0.407816
C     1.976955   -0.173421   -0.324959
C     0.523022   -0.117121   -0.183650
C    -0.674290   -0.101787   -0.111486
C    -2.125829   -0.103987   -0.024120
H    -1.980086    1.705683    0.601006
H     2.283524   -0.643865   -1.260372
