15
4-5-dimethyl-1-3-thiazole-23H-thione[B3LYP/aug-cc-pVTZ]
C     2.045287    1.959573    0.000020
C     1.079023    0.821006    0.000009
C     1.317642   -0.506197    0.000000
C     2.614953   -1.243781    0.000000
S    -0.210914   -1.391881   -0.000010
C    -1.168018    0.085615   -0.000003
N    -0.281545    1.116807    0.000007
S    -2.819584    0.202116   -0.000008
H     1.909294    2.589853   -0.881908
H     3.071241    1.602683    0.000021
H     1.909289    2.589840    0.881956
H     2.709293   -1.883500   -0.879789
H     2.709288   -1.883511    0.879781
H     3.456495   -0.553476    0.000007
H    -0.639431    2.059413    0.000012
