10
5-chloromethyl-1-2-4-thiadiazole[B3LYP/aug-cc-pVTZ]
Cl    -2.472282   -0.267612   -0.000030
S     0.639929   -1.110653    0.000024
N     1.179481    1.352505   -0.000015
N     2.252013   -0.695943   -0.000013
C     0.152322    0.548818    0.000016
C     2.324073    0.610198   -0.000029
C    -1.251803    1.057260    0.000047
H     3.286720    1.101720   -0.000055
H    -1.432399    1.662317   -0.884472
H    -1.432404    1.662208    0.884642
