11
5-dichloromethyl-1-2-oxazole[B3LYP/aug-cc-pVTZ]
Cl    -1.769018   -1.402538    0.178117
Cl    -1.547273    1.487912   -0.423243
O     1.460798    0.667411    0.845353
N     2.756231    0.418539    0.391564
C     0.598785   -0.083649    0.134479
C    -0.831962    0.092960    0.483695
C     1.270958   -0.829507   -0.776098
C     2.623928   -0.463831   -0.561859
H    -0.948218    0.336127    1.532441
H     0.868419   -1.532812   -1.480568
H     3.506494   -0.819577   -1.069811
