10
5-isocyanatoisoxazole[B3LYP/aug-cc-pVTZ]
O     0.546539   -0.953762    0.000000
O    -3.228086   -0.349170    0.000000
N    -1.101796    0.691502    0.000000
N     1.947764   -1.059792    0.000000
C     0.218242    0.351741    0.000000
C     1.335896    1.124727    0.000000
C     2.382875    0.171585    0.000000
C    -2.155264    0.095523    0.000000
H     1.392435    2.196850    0.000000
H     3.447671    0.343180    0.000001
