12
4-5-dihydrothiophene-2-ol[B3LYP/aug-cc-pVTZ]
S     0.063989   -1.268775   -0.106157
C    -0.855000    0.245265    0.022198
C    -0.124231    1.361916    0.026050
C     1.350842    1.127767   -0.161767
C     1.614187   -0.331940    0.244577
O    -2.200117    0.086742    0.072454
H    -0.557765    2.351675    0.076223
H     1.963154    1.798749    0.443646
H     1.811188   -0.410907    1.312550
H     1.639155    1.290531   -1.207061
H     2.432239   -0.791140   -0.303764
H    -2.625644    0.949515    0.010935
