10
3-cyano-5-fluorothiophene[B3LYP/aug-cc-pVTZ]
S     1.303707    1.137937   -0.000005
F     2.339801   -1.305984    0.000004
N    -3.545099   -0.372952    0.000002
C    -0.996543   -0.005333    0.000000
C    -0.047454   -1.079338    0.000004
C    -0.415563    1.234811   -0.000005
C     1.215353   -0.596779    0.000002
C    -2.404958   -0.204569    0.000001
H    -0.299796   -2.127042    0.000008
H    -0.907038    2.191826   -0.000008
