11
5-methyl-isoxazole[B3LYP/aug-cc-pVTZ]
C    -0.346200    2.073702    0.000000
H    -0.936846    2.330581    0.880543
H     0.558932    2.676627    0.000000
H    -0.936846    2.330581   -0.880543
C     0.000000    0.630252    0.000000
O    -1.025177   -0.242897    0.000000
N    -0.522613   -1.551143    0.000000
C     0.774494   -1.414513    0.000000
H     1.390658   -2.299799    0.000000
C     1.173944   -0.053727    0.000000
H     2.170386    0.348899    0.000000
