13
5-chloro-3-ethynyl-1-methyl-124-triazole[B3LYP/aug-cc-pVTZ]
Cl    -2.273721   -1.145016    0.000007
N    -0.545925    0.931210   -0.000361
N     0.780358    1.189764   -0.000206
N     0.415924   -1.046068    0.000109
C    -1.507346    2.016770    0.000250
C    -0.725032   -0.407416   -0.000057
C     1.323326   -0.022938    0.000027
C     2.726873   -0.228945    0.000057
C     3.911599   -0.413981    0.000075
H    -1.359292    2.633377   -0.883814
H    -2.508410    1.598147   -0.006840
H    -1.368588    2.625200    0.891548
H     4.960520   -0.576746    0.000087
