10
5-methyloxadithiole[B3LYP/aug-cc-pVTZ]
S    -1.381222    0.952356    0.131158
S    -1.060922   -1.105763   -0.180184
O     0.561045   -1.063545    0.339172
C     1.148044    0.146398   -0.006454
C     2.633844    0.082759   -0.038161
C     0.357752    1.202401   -0.188373
H     2.975948   -0.613159   -0.805738
H     3.010492   -0.275655    0.922250
H     3.055424    1.065713   -0.234875
H     0.706231    2.196611   -0.412681
