15
5-fluoro-6-hydroxy-13-diazinane-24-dione[B3LYP/aug-cc-pVTZ]
F     2.375832    0.341649   -0.121397
O     1.124163   -2.287866    0.174880
O     0.695969    2.490935   -0.051098
O    -2.942224   -0.245940    0.022644
N    -0.875008   -1.207874    0.004582
N    -1.112015    1.111674   -0.020101
C     1.090406    0.142282    0.334810
C     0.527478   -1.113100   -0.322479
C     0.238552    1.381307    0.053108
C    -1.735828   -0.146180    0.002266
H     1.129546   -0.014071    1.416546
H     0.692280   -1.042947   -1.407061
H     2.004927   -2.374716   -0.205212
H    -1.307982   -2.113080   -0.090426
H    -1.739008    1.900491   -0.090282
