10
C5H2O3[B3LYP/aug-cc-pVTZ]
O     2.917786   -1.157943   -0.000019
O     2.935541    1.069886   -0.000044
O    -4.203167    0.107734    0.000034
C     2.298217   -0.130187   -0.000019
C     0.859664   -0.051301    0.000006
C    -0.350583   -0.022132    0.000009
C    -1.705579    0.003733    0.000014
C    -2.911532    0.002168    0.000026
H     2.290340    1.788517   -0.000042
H    -4.632743   -0.759617    0.000060
