13
7H-purine[B3LYP/aug-cc-pVTZ]
C    -1.358848    0.996788    0.000000
C    -1.701599   -1.270252    0.000000
C     2.192531    0.578405    0.000000
C     0.000000    0.735121    0.000000
C     0.431371   -0.608939    0.000000
N    -2.209140   -0.025435    0.000000
N    -0.422841   -1.629439    0.000000
N     1.809446   -0.668802    0.000000
N     1.159397    1.480474    0.000000
H    -1.773845    1.998833    0.000000
H    -2.428333   -2.073138    0.000000
H     3.219520    0.908175    0.000000
H     1.243895    2.481808    0.000000
