16
7-9-dihydro-3H-purine-2-6-8-trione[B3LYP/aug-cc-pVTZ]
C     0.000000    0.690260    0.000000
C     0.612433   -0.524322    0.000000
C    -1.421181    0.815858    0.000000
C     2.250868    1.064696    0.000000
C    -1.472895   -1.715075    0.000000
N     1.008530    1.656063    0.000000
N     1.963364   -0.327181    0.000000
N    -0.075505   -1.702376    0.000000
N    -2.045569   -0.457319    0.000000
O    -2.078366    1.839915    0.000000
O     3.351110    1.564725    0.000000
O    -2.104133   -2.748954    0.000000
H     0.868938    2.650817    0.000000
H     2.693788   -1.017316    0.000000
H     0.372696   -2.603452    0.000000
H    -3.055399   -0.448350    0.000000
